*SPEF "ieee 1481-1999"
*DESIGN "counter_8bit"
*DATE "20:06:51 Wednesday August 13, 2025"
*VENDOR "The OpenROAD Project"
*PROGRAM "OpenROAD"
*VERSION "341650e72dad0dc8571822ff8c5d9c5e365327f7"
*DESIGN_FLOW "NAME_SCOPE LOCAL" "PIN_CAP NONE"
*DIVIDER /
*DELIMITER :
*BUS_DELIMITER []
*T_UNIT 1 NS
*C_UNIT 1 PF
*R_UNIT 1 OHM
*L_UNIT 1 HENRY

*NAME_MAP
*3 clk_i
*4 count_o[0]
*5 count_o[1]
*6 count_o[2]
*7 count_o[3]
*8 count_o[4]
*9 count_o[5]
*10 count_o[6]
*11 count_o[7]
*12 en_i
*13 ovf_o
*14 rst_ni
*15 _00_
*16 _01_
*17 _02_
*18 _03_
*19 _04_
*20 _05_
*21 _06_
*22 _07_
*23 _08_
*24 _09_
*25 _10_
*26 _11_
*27 _12_
*28 _13_
*29 _14_
*30 _15_
*31 _16_
*32 _17_
*33 _18_
*34 _19_
*35 _20_
*36 _21_
*37 _22_
*38 _23_
*39 _24_
*40 _25_
*41 _26_
*42 _27_
*43 _28_
*44 _29_
*45 _30_
*46 _31_
*47 _32_
*48 clknet_0_clk_i
*49 clknet_1_0__leaf_clk_i
*50 clknet_1_1__leaf_clk_i
*51 net1
*52 net10
*53 net11
*54 net12
*55 net13
*56 net14
*57 net15
*58 net16
*59 net17
*60 net18
*61 net19
*62 net2
*63 net20
*64 net21
*65 net22
*66 net23
*67 net24
*68 net25
*69 net26
*70 net27
*71 net28
*72 net29
*73 net3
*74 net30
*75 net31
*76 net32
*77 net33
*78 net34
*79 net35
*80 net36
*81 net37
*82 net4
*83 net5
*84 net6
*85 net7
*86 net8
*87 net9
*88 FILLER_0_0
*89 FILLER_0_14
*90 FILLER_0_21
*91 FILLER_0_28
*92 FILLER_0_30
*93 FILLER_0_39
*94 FILLER_0_43
*95 FILLER_0_49
*96 FILLER_0_56
*97 FILLER_0_63
*98 FILLER_0_7
*99 FILLER_0_70
*100 FILLER_0_77
*101 FILLER_0_84
*102 FILLER_0_91
*103 FILLER_10_0
*104 FILLER_10_14
*105 FILLER_10_21
*106 FILLER_10_28
*107 FILLER_10_35
*108 FILLER_10_7
*109 FILLER_10_70
*110 FILLER_10_77
*111 FILLER_10_83
*112 FILLER_10_90
*113 FILLER_1_0
*114 FILLER_1_14
*115 FILLER_1_21
*116 FILLER_1_40
*117 FILLER_1_7
*118 FILLER_1_75
*119 FILLER_1_82
*120 FILLER_1_89
*121 FILLER_1_9
*122 FILLER_1_91
*123 FILLER_2_0
*124 FILLER_2_4
*125 FILLER_2_42
*126 FILLER_2_75
*127 FILLER_2_82
*128 FILLER_2_89
*129 FILLER_2_91
*130 FILLER_3_0
*131 FILLER_3_10
*132 FILLER_3_23
*133 FILLER_3_4
*134 FILLER_3_52
*135 FILLER_3_54
*136 FILLER_3_60
*137 FILLER_3_84
*138 FILLER_4_0
*139 FILLER_4_47
*140 FILLER_4_63
*141 FILLER_5_11
*142 FILLER_5_15
*143 FILLER_5_25
*144 FILLER_5_35
*145 FILLER_5_4
*146 FILLER_6_0
*147 FILLER_6_37
*148 FILLER_6_41
*149 FILLER_6_82
*150 FILLER_6_86
*151 FILLER_7_13
*152 FILLER_7_20
*153 FILLER_7_27
*154 FILLER_7_29
*155 FILLER_7_63
*156 FILLER_8_0
*157 FILLER_8_14
*158 FILLER_8_25
*159 FILLER_8_35
*160 FILLER_8_65
*161 FILLER_8_7
*162 FILLER_9_0
*163 FILLER_9_14
*164 FILLER_9_43
*165 FILLER_9_58
*166 FILLER_9_7
*167 FILLER_9_80
*168 FILLER_9_90
*169 _42_
*170 _43_
*171 _44_
*172 _45_
*173 _46_
*174 _47_
*175 _48_
*176 _49_
*177 _50_
*178 _51_
*179 _52_
*180 _53_
*181 _54_
*182 _55_
*183 _56_
*184 _57_
*185 _58_
*186 _59_
*187 _60_
*188 _61_
*189 _62_
*190 _63_
*191 _64_
*192 _65_
*193 _66_
*194 _67_
*195 _68_
*196 _69_
*197 _70_
*198 _71_
*199 _72_
*200 _73_
*201 _74_
*202 _75_
*203 _75__17
*204 _76_
*205 _76__18
*206 _77_
*207 _77__16
*208 _78_
*209 _78__14
*210 _79_
*211 _79__12
*212 _80_
*213 _80__19
*214 _81_
*215 _81__15
*216 _82_
*217 _82__20
*218 _83_
*219 _83__13
*220 clkbuf_0_clk_i
*221 clkbuf_1_0__f_clk_i
*222 clkbuf_1_1__f_clk_i
*223 clkload0
*224 fanout3
*225 hold1
*226 hold10
*227 hold11
*228 hold12
*229 hold13
*230 hold14
*231 hold15
*232 hold16
*233 hold2
*234 hold3
*235 hold4
*236 hold5
*237 hold6
*238 hold7
*239 hold8
*240 hold9
*241 input1
*242 input2
*243 output10
*244 output11
*245 output3
*246 output4
*247 output5
*248 output6
*249 output7
*250 output8
*251 output9

*PORTS
clk_i I
count_o[0] O
count_o[1] O
count_o[2] O
count_o[3] O
count_o[4] O
count_o[5] O
count_o[6] O
count_o[7] O
en_i I
ovf_o O
rst_ni I

*D_NET *3 0.00524639
*CONN
*P clk_i I
*I *220:A I *D sg13g2_buf_8
*CAP
1 clk_i 0.00121544
2 *220:A 0
3 *3:15 0.000254913
4 *3:9 0.00147036
5 *3:9 *192:B 0
6 *3:9 *212:RESET_B 0
7 *3:9 *212:D 0
8 *3:9 *214:RESET_B 0
9 *3:9 *214:CLK 0.00032427
10 *3:9 *236:A 0
11 *3:9 *49:50 0.000500375
12 *3:9 *85:6 0
13 *3:15 *175:A 0.00103385
14 *3:15 *192:A 0.000447182
15 *3:15 *29:10 0
*RES
1 clk_i *3:9 33.9359 
2 *3:9 *3:15 44.7998 
3 *3:15 *220:A 20 
*END

*D_NET *4 0.000839304
*CONN
*P count_o[0] O
*I *245:X O *D sg13g2_buf_1
*CAP
1 count_o[0] 0.000419652
2 *245:X 0.000419652
3 count_o[0] *241:A 0
4 count_o[0] *245:A 0
5 count_o[0] *51:10 0
*RES
1 *245:X count_o[0] 44.0994 
*END

*D_NET *5 0.000305696
*CONN
*P count_o[1] O
*I *246:X O *D sg13g2_buf_1
*CAP
1 count_o[1] 0.000152848
2 *246:X 0.000152848
*RES
1 *246:X count_o[1] 41.9982 
*END

*D_NET *6 0.000470669
*CONN
*P count_o[2] O
*I *247:X O *D sg13g2_buf_1
*CAP
1 count_o[2] 0.000235334
2 *247:X 0.000235334
3 count_o[2] *242:A 0
*RES
1 *247:X count_o[2] 22.678 
*END

*D_NET *7 0.000468424
*CONN
*P count_o[3] O
*I *248:X O *D sg13g2_buf_1
*CAP
1 count_o[3] 0.000234212
2 *248:X 0.000234212
3 count_o[3] *242:A 0
*RES
1 *248:X count_o[3] 22.678 
*END

*D_NET *8 0.000260694
*CONN
*P count_o[4] O
*I *249:X O *D sg13g2_buf_1
*CAP
1 count_o[4] 0.000130347
2 *249:X 0.000130347
*RES
1 *249:X count_o[4] 41.7201 
*END

*D_NET *9 0.000742252
*CONN
*P count_o[5] O
*I *250:X O *D sg13g2_buf_1
*CAP
1 count_o[5] 0.000371126
2 *250:X 0.000371126
3 count_o[5] *86:19 0
4 count_o[5] *87:10 0
*RES
1 *250:X count_o[5] 44.0891 
*END

*D_NET *10 0.000388135
*CONN
*P count_o[6] O
*I *251:X O *D sg13g2_buf_1
*CAP
1 count_o[6] 0.000194067
2 *251:X 0.000194067
3 count_o[6] *218:RESET_B 0
4 count_o[6] *66:10 0
*RES
1 *251:X count_o[6] 42.2557 
*END

*D_NET *11 0.000524378
*CONN
*P count_o[7] O
*I *243:X O *D sg13g2_buf_1
*CAP
1 count_o[7] 0.000262189
2 *243:X 0.000262189
3 count_o[7] *169:A 0
*RES
1 *243:X count_o[7] 23.1209 
*END

*D_NET *12 0.00065378
*CONN
*P en_i I
*I *241:A I *D sg13g2_buf_2
*CAP
1 en_i 0.00032689
2 *241:A 0.00032689
3 *241:A *51:10 0
4 count_o[0] *241:A 0
*RES
1 en_i *241:A 43.0797 
*END

*D_NET *13 0.000530366
*CONN
*P ovf_o O
*I *244:X O *D sg13g2_buf_1
*CAP
1 ovf_o 0.000265183
2 *244:X 0.000265183
*RES
1 *244:X ovf_o 23.1209 
*END

*D_NET *14 0.00058484
*CONN
*P rst_ni I
*I *242:A I *D sg13g2_buf_1
*CAP
1 rst_ni 0.000284692
2 *242:A 0.000284692
3 *242:A *171:A 0
4 *242:A *247:A 1.54556e-05
5 count_o[2] *242:A 0
6 count_o[3] *242:A 0
*RES
1 rst_ni *242:A 23.3269 
*END

*D_NET *15 0.000545604
*CONN
*I *235:A I *D sg13g2_dlygate4sd3_1
*I *177:X O *D sg13g2_a21o_1
*CAP
1 *235:A 0.000232689
2 *177:X 0.000232689
3 *235:A *172:A 8.02267e-05
4 *235:A *177:A1 0
5 *235:A *177:B1 0
6 *235:A *234:A 0
*RES
1 *177:X *235:A 42.6162 
*END

*D_NET *16 0.000419013
*CONN
*I *204:D I *D sg13g2_dfrbpq_2
*I *179:Y O *D sg13g2_a21oi_1
*CAP
1 *204:D 0.000209506
2 *179:Y 0.000209506
3 *204:D *32:10 0
4 *204:D *51:33 0
5 *204:D *73:44 0
*RES
1 *179:Y *204:D 41.9982 
*END

*D_NET *17 0.000963071
*CONN
*I *206:D I *D sg13g2_dfrbpq_2
*I *183:Y O *D sg13g2_nor2_1
*CAP
1 *206:D 4.57628e-05
2 *183:Y 0.000206606
3 *17:10 0.000252369
4 *206:D *33:10 7.97574e-05
5 *206:D *72:33 0
6 *17:10 *183:A 0
7 *17:10 *183:B 0.000143775
8 *17:10 *33:10 0.000234801
9 *17:10 *51:59 0
*RES
1 *183:Y *17:10 42.2763 
2 *17:10 *206:D 40.5356 
*END

*D_NET *18 0.00235135
*CONN
*I *208:D I *D sg13g2_dfrbpq_2
*I *187:X O *D sg13g2_and3_1
*CAP
1 *208:D 0
2 *187:X 0.000826786
3 *18:14 0.000826786
4 *18:14 *184:A_N 0.000274527
5 *18:14 *206:CLK 0
6 *18:14 *247:A 0.000242186
7 *18:14 *49:22 0
8 *18:14 *84:8 0.000181064
*RES
1 *187:X *18:14 49.2803 
2 *18:14 *208:D 40 
*END

*D_NET *19 0.000597105
*CONN
*I *229:A I *D sg13g2_dlygate4sd3_1
*I *189:Y O *D sg13g2_a21oi_1
*CAP
1 *229:A 0.000122562
2 *189:Y 0.000122562
3 *229:A *188:A1 0.00014374
4 *229:A *189:B1 0.000208242
*RES
1 *189:Y *229:A 41.4008 
*END

*D_NET *20 0.00165515
*CONN
*I *238:A I *D sg13g2_dlygate4sd3_1
*I *193:Y O *D sg13g2_nor2_1
*CAP
1 *238:A 4.71923e-05
2 *193:Y 0.000740283
3 *20:8 0.000787475
4 *238:A *62:16 8.01995e-05
5 *20:8 *49:22 0
6 *20:8 *49:50 0
7 *20:8 *69:8 0
8 *20:8 *70:10 0
*RES
1 *193:Y *20:8 46.5302 
2 *20:8 *238:A 40.5356 
*END

*D_NET *21 0.00114172
*CONN
*I *214:D I *D sg13g2_dfrbpq_1
*I *196:X O *D sg13g2_and3_1
*CAP
1 *214:D 0
2 *196:X 0.000202143
3 *21:8 0.000202143
4 *21:8 *192:B 0
5 *21:8 *43:10 0
6 *21:8 *80:8 0.000129078
7 *21:8 *86:27 0.000608355
*RES
1 *196:X *21:8 42.8222 
2 *21:8 *214:D 40 
*END

*D_NET *22 0.000574897
*CONN
*I *227:A I *D sg13g2_dlygate4sd3_1
*I *199:Y O *D sg13g2_a21oi_1
*CAP
1 *227:A 4.34108e-05
2 *199:Y 0.000203925
3 *22:8 0.000247335
4 *227:A *222:A 8.02267e-05
5 *22:8 *25:8 0
6 *22:8 *25:18 0
7 *22:8 *44:59 0
*RES
1 *199:Y *22:8 41.8334 
2 *22:8 *227:A 40.5356 
*END

*D_NET *23 0.000666964
*CONN
*I *233:A I *D sg13g2_dlygate4sd3_1
*I *201:Y O *D sg13g2_a21oi_1
*CAP
1 *233:A 4.56879e-05
2 *201:Y 0.000247609
3 *23:8 0.000293297
4 *233:A *218:CLK 0
5 *233:A *53:10 8.03692e-05
6 *23:8 *47:10 0
7 *23:8 *53:10 0
*RES
1 *201:Y *23:8 42.3278 
2 *23:8 *233:A 40.5356 
*END

*D_NET *24 0.000514842
*CONN
*I *201:A1 I *D sg13g2_a21oi_1
*I *169:Y O *D sg13g2_inv_1
*CAP
1 *201:A1 0.00016911
2 *169:Y 0.00016911
3 *201:A1 *174:A 0
4 *201:A1 *201:A2 0.000176623
5 *201:A1 *201:B1 0
6 *201:A1 *218:CLK 0
*RES
1 *169:Y *201:A1 41.6171 
*END

*D_NET *25 0.00244641
*CONN
*I *198:A1 I *D sg13g2_o21ai_1
*I *199:A1 I *D sg13g2_a21oi_1
*I *197:A I *D sg13g2_or2_1
*I *170:Y O *D sg13g2_inv_1
*CAP
1 *198:A1 0
2 *199:A1 0
3 *197:A 0.000271016
4 *170:Y 0.000211512
5 *25:18 0.000423655
6 *25:12 0.000264212
7 *25:8 0.000323086
8 *197:A *199:B1 0
9 *197:A *224:A 0
10 *197:A *44:59 0.000111568
11 *197:A *45:10 8.00425e-05
12 *197:A *50:12 0
13 *197:A *52:8 0
14 *197:A *75:10 0
15 *25:8 *176:C 0
16 *25:8 *75:10 0
17 *25:12 *222:A 0.000209756
18 *25:12 *44:29 0.000177272
19 *25:12 *44:44 3.23417e-05
20 *25:18 *44:37 0.000341949
21 *22:8 *25:8 0
22 *22:8 *25:18 0
*RES
1 *170:Y *25:8 42.0806 
2 *25:8 *25:12 21.4008 
3 *25:12 *25:18 41.8334 
4 *25:18 *197:A 22.9664 
5 *25:18 *199:A1 20 
6 *25:12 *198:A1 20 
*END

*D_NET *26 0.0018242
*CONN
*I *188:A1 I *D sg13g2_o21ai_1
*I *189:A1 I *D sg13g2_a21oi_1
*I *171:Y O *D sg13g2_inv_1
*CAP
1 *188:A1 0.00043039
2 *189:A1 0
3 *171:Y 0.000233694
4 *26:8 0.000664084
5 *188:A1 *188:B1 0
6 *188:A1 *188:A2 1.54008e-05
7 *188:A1 *189:B1 0
8 *188:A1 *55:14 0.000336895
9 *26:8 *189:A2 0
10 *26:8 *247:A 0
11 *26:8 *77:27 0
12 *229:A *188:A1 0.00014374
*RES
1 *171:Y *26:8 22.4617 
2 *26:8 *189:A1 20 
3 *26:8 *188:A1 24.4496 
*END

*D_NET *27 0.000739858
*CONN
*I *176:A I *D sg13g2_nor4_1
*I *177:A2 I *D sg13g2_a21o_1
*I *172:Y O *D sg13g2_nand2_1
*CAP
1 *176:A 4.96004e-05
2 *177:A2 4.39539e-05
3 *172:Y 0.000196472
4 *27:8 0.000290026
5 *177:A2 *177:A1 7.99033e-05
6 *177:A2 *177:B1 7.99033e-05
7 *27:8 *51:10 0
8 *27:8 *51:25 0
9 *27:8 *73:17 0
*RES
1 *172:Y *27:8 42.0806 
2 *27:8 *177:A2 40.5459 
3 *27:8 *176:A 40.5974 
*END

*D_NET *28 0.00107026
*CONN
*I *176:B I *D sg13g2_nor4_1
*I *173:Y O *D sg13g2_nand4_1
*CAP
1 *176:B 0.000439628
2 *173:Y 0.000439628
3 *176:B *172:A 0
4 *176:B *176:C 4.75265e-05
5 *176:B *177:B1 0
6 *176:B *51:25 0
7 *176:B *51:47 0
8 *176:B *73:6 0
9 *176:B *86:27 0.000143481
*RES
1 *173:Y *176:B 44.6144 
*END

*D_NET *29 0.00283418
*CONN
*I *200:A1 I *D sg13g2_o21ai_1
*I *176:C I *D sg13g2_nor4_1
*I *174:Y O *D sg13g2_nand2_1
*CAP
1 *200:A1 0.000203702
2 *176:C 0.000467823
3 *174:Y 0.000706401
4 *29:10 0.00137793
5 *176:C *176:D 1.54008e-05
6 *176:C *192:A 0
7 *176:C *73:6 0
8 *176:C *73:17 0
9 *176:C *75:10 0
10 *200:A1 *200:A2 1.54008e-05
11 *200:A1 *224:A 0
12 *200:A1 *44:29 0
13 *29:10 *175:A 0
14 *29:10 *201:B1 0
15 *29:10 *218:RESET_B 0
16 *29:10 *218:CLK 0
17 *29:10 *47:10 0
18 *29:10 *66:10 0
19 *29:10 *75:10 0
20 *29:10 *87:14 0
21 *176:B *176:C 4.75265e-05
22 *3:15 *29:10 0
23 *25:8 *176:C 0
*RES
1 *174:Y *29:10 47.3439 
2 *29:10 *176:C 44.6247 
3 *29:10 *200:A1 41.8334 
*END

*D_NET *30 0.000277592
*CONN
*I *176:D I *D sg13g2_nor4_1
*I *175:Y O *D sg13g2_nand2_1
*CAP
1 *176:D 0.000131096
2 *175:Y 0.000131096
3 *176:D *73:6 0
4 *176:C *176:D 1.54008e-05
*RES
1 *175:Y *176:D 41.1845 
*END

*D_NET *31 0.00058302
*CONN
*I *177:B1 I *D sg13g2_a21o_1
*I *176:Y O *D sg13g2_nor4_1
*CAP
1 *177:B1 0.000243858
2 *176:Y 0.000243858
3 *177:B1 *177:A1 1.54008e-05
4 *176:B *177:B1 0
5 *177:A2 *177:B1 7.99033e-05
6 *235:A *177:B1 0
*RES
1 *176:Y *177:B1 42.9458 
*END

*D_NET *32 0.000897125
*CONN
*I *179:B1 I *D sg13g2_a21oi_1
*I *178:Y O *D sg13g2_o21ai_1
*CAP
1 *179:B1 0
2 *178:Y 0.00018878
3 *32:10 0.00018878
4 *32:10 *173:D 0.000179085
5 *32:10 *183:A 1.54008e-05
6 *32:10 *72:21 0.000180236
7 *32:10 *73:44 0.000144843
8 *204:D *32:10 0
*RES
1 *178:Y *32:10 42.2454 
2 *32:10 *179:B1 40 
*END

*D_NET *33 0.00178296
*CONN
*I *183:A I *D sg13g2_nor2_1
*I *180:Y O *D sg13g2_a21oi_1
*CAP
1 *183:A 0.000161232
2 *180:Y 0.000393762
3 *33:10 0.000554995
4 *183:A *178:A2 3.23417e-05
5 *183:A *72:33 0.000209499
6 *33:10 *173:C 0
7 *33:10 *180:A2 0
8 *33:10 *180:B1 7.91215e-05
9 *33:10 *182:B 0
10 *33:10 *72:33 2.20491e-05
11 *206:D *33:10 7.97574e-05
12 *17:10 *183:A 0
13 *17:10 *33:10 0.000234801
14 *32:10 *183:A 1.54008e-05
*RES
1 *180:Y *33:10 43.8831 
2 *33:10 *183:A 41.6171 
*END

*D_NET *34 0.00139097
*CONN
*I *184:B I *D sg13g2_nand2b_1
*I *182:B I *D sg13g2_nand2_1
*I *181:Y O *D sg13g2_nand3_1
*CAP
1 *184:B 0.000384162
2 *182:B 0.000151286
3 *181:Y 0.000535447
4 *182:B *180:B1 0
5 *182:B *51:59 0.000143144
6 *184:B *184:A_N 0.000176929
7 *184:B *186:B 0
8 *184:B *36:10 0
9 *33:10 *182:B 0
*RES
1 *181:Y *182:B 41.4008 
2 *181:Y *184:B 43.8007 
*END

*D_NET *35 0.000525761
*CONN
*I *183:B I *D sg13g2_nor2_1
*I *182:Y O *D sg13g2_nand2_1
*CAP
1 *183:B 0.000190993
2 *182:Y 0.000190993
3 *183:B *180:A2 0
4 *17:10 *183:B 0.000143775
*RES
1 *182:Y *183:B 41.9673 
*END

*D_NET *36 0.000519738
*CONN
*I *187:B I *D sg13g2_and3_1
*I *184:Y O *D sg13g2_nand2b_1
*CAP
1 *187:B 0
2 *184:Y 0.000259869
3 *36:10 0.000259869
4 *36:10 *84:8 0
5 *36:10 *84:25 0
6 *184:B *36:10 0
*RES
1 *184:Y *36:10 42.6162 
2 *36:10 *187:B 40 
*END

*D_NET *37 0.00200423
*CONN
*I *191:C I *D sg13g2_nand3_1
*I *190:A2 I *D sg13g2_a21oi_1
*I *195:D I *D sg13g2_nand4_1
*I *185:X O *D sg13g2_and4_1
*CAP
1 *191:C 4.00686e-05
2 *190:A2 0.000154818
3 *195:D 0.000219302
4 *185:X 0
5 *37:19 0.000307209
6 *37:4 0.000331624
7 *190:A2 *195:C 4.77425e-05
8 *190:A2 *77:27 0.000241282
9 *190:A2 *85:28 1.54008e-05
10 *190:A2 *85:43 0.000258223
11 *191:C *77:35 0.000106064
12 *195:D *195:C 4.75265e-05
13 *195:D *85:43 0
14 *37:19 *185:B 0
15 *37:19 *193:B 0
16 *37:19 *195:C 0.000112134
17 *37:19 *77:35 7.51285e-05
18 *37:19 *84:35 4.77083e-05
19 *37:19 *85:43 0
*RES
1 *185:X *37:4 20 
2 *37:4 *195:D 22.2145 
3 *37:4 *37:19 21.3493 
4 *37:19 *190:A2 41.8334 
5 *37:19 *191:C 40.5974 
*END

*D_NET *38 0.0035945
*CONN
*I *188:A2 I *D sg13g2_o21ai_1
*I *187:C I *D sg13g2_and3_1
*I *189:A2 I *D sg13g2_a21oi_1
*I *186:Y O *D sg13g2_nand4_1
*CAP
1 *188:A2 0.000269834
2 *187:C 0
3 *189:A2 0.000288856
4 *186:Y 0
5 *38:23 0.000223256
6 *38:6 0.000869843
7 *38:4 0.000627564
8 *188:A2 *188:B1 1.54008e-05
9 *188:A2 *84:35 0.000143453
10 *189:A2 *187:A 0.000240396
11 *189:A2 *55:14 0
12 *38:6 *186:B 0
13 *38:6 *187:A 0.000128508
14 *38:6 *193:B 0.000112053
15 *38:6 *51:49 1.54008e-05
16 *38:6 *84:35 0
17 *38:23 *187:A 0.000242098
18 *38:23 *247:A 0.000274527
19 *38:23 *49:22 0
20 *38:23 *84:25 0.00012791
21 *188:A1 *188:A2 1.54008e-05
22 *26:8 *189:A2 0
*RES
1 *186:Y *38:4 20 
2 *38:4 *38:6 3.3475 
3 *38:6 *189:A2 23.3887 
4 *38:6 *38:23 42.6471 
5 *38:23 *187:C 20 
6 *38:4 *188:A2 22.987 
*END

*D_NET *39 0.00168762
*CONN
*I *189:B1 I *D sg13g2_a21oi_1
*I *188:Y O *D sg13g2_o21ai_1
*CAP
1 *189:B1 0.000354199
2 *188:Y 0.000354199
3 *189:B1 *188:B1 0.000176183
4 *189:B1 *77:27 0.0005948
5 *188:A1 *189:B1 0
6 *229:A *189:B1 0.000208242
*RES
1 *188:Y *189:B1 43.9964 
*END

*D_NET *40 0.00154787
*CONN
*I *237:A I *D sg13g2_dlygate4sd3_1
*I *190:Y O *D sg13g2_a21oi_1
*CAP
1 *237:A 0.000141352
2 *190:Y 0.00025002
3 *40:10 0.000391372
4 *237:A *194:A_N 0
5 *237:A *62:16 7.94462e-05
6 *40:10 *193:B 0.000606279
7 *40:10 *69:23 0
8 *40:10 *77:35 0
9 *40:10 *85:43 7.93965e-05
*RES
1 *190:Y *40:10 43.3578 
2 *40:10 *237:A 41.3184 
*END

*D_NET *41 0.00270581
*CONN
*I *192:B I *D sg13g2_nand2_1
*I *194:B I *D sg13g2_nand2b_1
*I *191:Y O *D sg13g2_nand3_1
*CAP
1 *192:B 0.000549087
2 *194:B 0.000257327
3 *191:Y 0.000126968
4 *41:8 0.000933382
5 *192:B *214:RESET_B 0
6 *192:B *42:12 0.000468625
7 *192:B *43:10 0
8 *192:B *69:8 0
9 *194:B *194:A_N 0.000370423
10 *194:B *43:10 0
11 *3:9 *192:B 0
12 *21:8 *192:B 0
*RES
1 *191:Y *41:8 41.339 
2 *41:8 *194:B 42.4823 
3 *41:8 *192:B 45.9225 
*END

*D_NET *42 0.00421715
*CONN
*I *193:B I *D sg13g2_nor2_1
*I *192:Y O *D sg13g2_nand2_1
*CAP
1 *193:B 0.000689202
2 *192:Y 0.000536806
3 *42:12 0.00122601
4 *193:B *186:B 0.000112648
5 *193:B *69:8 0
6 *193:B *70:10 0
7 *193:B *84:35 0.000287935
8 *42:12 *212:D 0
9 *42:12 *62:16 0.000177597
10 *192:B *42:12 0.000468625
11 *37:19 *193:B 0
12 *38:6 *193:B 0.000112053
13 *40:10 *193:B 0.000606279
*RES
1 *192:Y *42:12 45.8092 
2 *42:12 *193:B 47.5293 
*END

*D_NET *43 0.00154848
*CONN
*I *231:A I *D sg13g2_dlygate4sd3_1
*I *194:Y O *D sg13g2_nand2b_1
*CAP
1 *231:A 3.04198e-05
2 *194:Y 0.000610554
3 *43:10 0.000640973
4 *231:A *62:16 4.77425e-05
5 *43:10 *194:A_N 0
6 *43:10 *221:A 0
7 *43:10 *70:10 0.000143571
8 *43:10 *80:8 7.52158e-05
9 *192:B *43:10 0
10 *194:B *43:10 0
11 *21:8 *43:10 0
*RES
1 *194:Y *43:10 45.4281 
2 *43:10 *231:A 40.3193 
*END

*D_NET *44 0.00526618
*CONN
*I *200:A2 I *D sg13g2_o21ai_1
*I *197:B I *D sg13g2_or2_1
*I *198:A2 I *D sg13g2_o21ai_1
*I *199:A2 I *D sg13g2_a21oi_1
*I *196:C I *D sg13g2_and3_1
*I *195:Y O *D sg13g2_nand4_1
*CAP
1 *200:A2 0.000205432
2 *197:B 0
3 *198:A2 0
4 *199:A2 0
5 *196:C 0
6 *195:Y 0.000205483
7 *44:59 0.000328178
8 *44:44 0.000350032
9 *44:37 0.000154014
10 *44:29 0.000675369
11 *44:25 0.000846273
12 *44:14 0.000174784
13 *44:10 0.000238928
14 *200:A2 *194:A_N 0
15 *200:A2 *62:16 0.000176369
16 *200:A2 *79:8 0
17 *200:A2 *86:27 0.000266319
18 *44:10 *195:C 1.54556e-05
19 *44:10 *195:A 1.54008e-05
20 *44:10 *69:37 0
21 *44:10 *80:8 7.51285e-05
22 *44:14 *221:A 4.77425e-05
23 *44:25 *195:A 0
24 *44:25 *196:A 4.77347e-05
25 *44:25 *221:A 0.000112198
26 *44:25 *86:27 0.000235141
27 *44:29 *194:A_N 0
28 *44:29 *198:B1 0.000306754
29 *44:29 *221:A 0
30 *44:29 *222:A 0
31 *44:29 *73:6 0
32 *44:37 *75:10 4.77702e-05
33 *44:44 *198:B1 4.77425e-05
34 *44:59 *198:B1 1.54008e-05
35 *44:59 *218:CLK 0
36 *44:59 *222:A 0
37 *197:A *44:59 0.000111568
38 *200:A1 *200:A2 1.54008e-05
39 *200:A1 *44:29 0
40 *22:8 *44:59 0
41 *25:12 *44:29 0.000177272
42 *25:12 *44:44 3.23417e-05
43 *25:18 *44:37 0.000341949
*RES
1 *195:Y *44:10 42.0909 
2 *44:10 *44:14 20.3193 
3 *44:14 *196:C 20 
4 *44:14 *44:25 21.8437 
5 *44:25 *44:29 24.8616 
6 *44:29 *44:37 42.1527 
7 *44:37 *199:A2 20 
8 *44:29 *44:44 0.3193 
9 *44:44 *198:A2 20 
10 *44:44 *44:59 43.0282 
11 *44:59 *197:B 20 
12 *44:25 *200:A2 42.5235 
*END

*D_NET *45 0.00204173
*CONN
*I *201:A2 I *D sg13g2_a21oi_1
*I *197:X O *D sg13g2_or2_1
*CAP
1 *201:A2 0.000124784
2 *197:X 0.000410331
3 *45:10 0.000535115
4 *201:A2 *174:A 0
5 *45:10 *218:CLK 0
6 *45:10 *52:16 0
7 *45:10 *53:10 0.000714833
8 *197:A *45:10 8.00425e-05
9 *201:A1 *201:A2 0.000176623
*RES
1 *197:X *45:10 44.5938 
2 *45:10 *201:A2 41.1845 
*END

*D_NET *46 9.45957e-05
*CONN
*I *199:B1 I *D sg13g2_a21oi_1
*I *198:Y O *D sg13g2_o21ai_1
*CAP
1 *199:B1 4.72978e-05
2 *198:Y 4.72978e-05
3 *199:B1 *224:A 0
4 *197:A *199:B1 0
*RES
1 *198:Y *199:B1 40.5974 
*END

*D_NET *47 0.00204154
*CONN
*I *201:B1 I *D sg13g2_a21oi_1
*I *200:Y O *D sg13g2_o21ai_1
*CAP
1 *201:B1 0.000124363
2 *200:Y 0.000510114
3 *47:10 0.000634477
4 *201:B1 *218:CLK 0.000209756
5 *47:10 *198:B1 0
6 *47:10 *214:RESET_B 0
7 *47:10 *224:A 0.000339096
8 *47:10 *62:16 1.54008e-05
9 *47:10 *66:10 0.000128248
10 *47:10 *75:10 8.00842e-05
11 *201:A1 *201:B1 0
12 *23:8 *47:10 0
13 *29:10 *201:B1 0
14 *29:10 *47:10 0
*RES
1 *200:Y *47:10 45.768 
2 *47:10 *201:B1 41.4008 
*END

*D_NET *48 0.00375079
*CONN
*I *222:A I *D sg13g2_buf_8
*I *221:A I *D sg13g2_buf_8
*I *220:X O *D sg13g2_buf_8
*CAP
1 *222:A 0.000580647
2 *221:A 0.000845246
3 *220:X 0.00142589
4 *221:A *196:A 0
5 *221:A *62:16 0
6 *221:A *69:23 0.000240826
7 *221:A *69:37 0
8 *221:A *70:10 0.000208255
9 *221:A *85:28 0
10 *222:A *216:RESET_B 0
11 *222:A *216:D 0
12 *222:A *50:12 0
13 *222:A *73:6 0
14 *227:A *222:A 8.02267e-05
15 *25:12 *222:A 0.000209756
16 *43:10 *221:A 0
17 *44:14 *221:A 4.77425e-05
18 *44:25 *221:A 0.000112198
19 *44:29 *221:A 0
20 *44:29 *222:A 0
21 *44:59 *222:A 0
*RES
1 *220:X *221:A 48.1576 
2 *220:X *222:A 45.5105 
*END

*D_NET *49 0.00671682
*CONN
*I *214:CLK I *D sg13g2_dfrbpq_1
*I *212:CLK I *D sg13g2_dfrbpq_2
*I *208:CLK I *D sg13g2_dfrbpq_2
*I *206:CLK I *D sg13g2_dfrbpq_2
*I *210:CLK I *D sg13g2_dfrbpq_2
*I *221:X O *D sg13g2_buf_8
*CAP
1 *214:CLK 0.000246083
2 *212:CLK 0
3 *208:CLK 7.23747e-05
4 *206:CLK 0.000444907
5 *210:CLK 0.000149467
6 *221:X 0.000149467
7 *49:50 0.000931622
8 *49:22 0.00161551
9 *49:20 0.00178377
10 *206:CLK *180:A1 0
11 *206:CLK *180:A2 0
12 *206:CLK *240:A 0
13 *206:CLK *59:10 0
14 *206:CLK *74:10 0
15 *210:CLK *210:RESET_B 0
16 *210:CLK *62:16 0.000209899
17 *210:CLK *78:12 0
18 *214:CLK *236:A 1.54556e-05
19 *49:22 *55:14 0
20 *49:22 *73:67 0
21 *49:22 *85:17 0
22 *49:50 *236:A 0.000273618
23 *49:50 *63:10 0
24 *49:50 *69:8 0
25 *49:50 *85:17 0
26 *3:9 *214:CLK 0.00032427
27 *3:9 *49:50 0.000500375
28 *18:14 *206:CLK 0
29 *18:14 *49:22 0
30 *20:8 *49:22 0
31 *20:8 *49:50 0
32 *38:23 *49:22 0
*RES
1 *221:X *210:CLK 41.751 
2 *221:X *49:20 40 
3 *49:20 *49:22 10.2382 
4 *49:22 *206:CLK 44.5423 
5 *49:22 *208:CLK 40.7519 
6 *49:20 *49:50 27.9001 
7 *49:50 *212:CLK 20 
8 *49:50 *214:CLK 22.6162 
*END

*D_NET *50 0.00716279
*CONN
*I *218:CLK I *D sg13g2_dfrbpq_1
*I *216:CLK I *D sg13g2_dfrbpq_1
*I *223:A I *D sg13g2_inv_1
*I *202:CLK I *D sg13g2_dfrbpq_1
*I *204:CLK I *D sg13g2_dfrbpq_2
*I *222:X O *D sg13g2_buf_8
*CAP
1 *218:CLK 0.000783103
2 *216:CLK 0
3 *223:A 0
4 *202:CLK 0
5 *204:CLK 0
6 *222:X 7.51642e-05
7 *50:36 0.000869303
8 *50:22 0.00120403
9 *50:16 0.00074755
10 *50:12 0.000655718
11 *50:8 0.00110116
12 *218:CLK *53:10 0
13 *218:CLK *64:8 0.00092779
14 *218:CLK *66:10 0.000177184
15 *50:8 *64:8 0.000234726
16 *50:12 *216:RESET_B 0
17 *50:16 *54:27 0
18 *50:16 *64:8 0
19 *50:22 *54:27 0
20 *50:36 *172:B 0
21 *50:36 *202:RESET_B 0.000177299
22 *50:36 *204:RESET_B 0
23 *50:36 *245:A 0
24 *50:36 *68:12 0
25 *197:A *50:12 0
26 *201:A1 *218:CLK 0
27 *201:B1 *218:CLK 0.000209756
28 *222:A *50:12 0
29 *233:A *218:CLK 0
30 *29:10 *218:CLK 0
31 *44:59 *218:CLK 0
32 *45:10 *218:CLK 0
*RES
1 *222:X *50:8 41.0918 
2 *50:8 *50:12 22.4823 
3 *50:12 *50:16 24.7998 
4 *50:16 *50:22 23.914 
5 *50:22 *50:36 49.5378 
6 *50:36 *204:CLK 20 
7 *50:22 *202:CLK 20 
8 *50:16 *223:A 40 
9 *50:12 *216:CLK 20 
10 *50:8 *218:CLK 48.7447 
*END

*D_NET *51 0.00651747
*CONN
*I *185:A I *D sg13g2_and4_1
*I *186:A I *D sg13g2_nand4_1
*I *181:A I *D sg13g2_nand3_1
*I *180:A1 I *D sg13g2_a21oi_1
*I *178:A1 I *D sg13g2_o21ai_1
*I *179:A1 I *D sg13g2_a21oi_1
*I *172:A I *D sg13g2_nand2_1
*I *241:X O *D sg13g2_buf_2
*CAP
1 *185:A 0.000119113
2 *186:A 0
3 *181:A 0
4 *180:A1 0.00017078
5 *178:A1 0
6 *179:A1 0
7 *172:A 9.99271e-05
8 *241:X 0.000722394
9 *51:59 0.000498084
10 *51:49 0.000385259
11 *51:47 0.000655771
12 *51:33 0.00033936
13 *51:25 0.00104619
14 *51:10 0.00105045
15 *172:A *172:B 0
16 *180:A1 *180:A2 1.53311e-05
17 *180:A1 *180:B1 1.53311e-05
18 *51:10 *172:B 0
19 *51:10 *245:A 0
20 *51:10 *61:14 0.0004658
21 *51:25 *172:B 0
22 *51:25 *178:A2 1.54008e-05
23 *51:33 *172:B 0.0001814
24 *51:33 *173:D 0
25 *51:33 *179:A2 1.54008e-05
26 *51:33 *73:17 0.000106064
27 *51:33 *73:44 0
28 *51:47 *173:B 0
29 *51:47 *173:C 0
30 *51:47 *178:A2 0
31 *51:47 *185:B 0
32 *51:47 *72:33 0
33 *51:47 *85:43 0
34 *51:49 *186:B 4.77425e-05
35 *51:59 *181:B 0.000148099
36 *51:59 *70:10 0
37 *51:59 *72:58 0.000180807
38 *51:59 *74:23 0
39 count_o[0] *51:10 0
40 *176:B *172:A 0
41 *176:B *51:25 0
42 *176:B *51:47 0
43 *182:B *51:59 0.000143144
44 *204:D *51:33 0
45 *206:CLK *180:A1 0
46 *235:A *172:A 8.02267e-05
47 *241:A *51:10 0
48 *17:10 *51:59 0
49 *27:8 *51:10 0
50 *27:8 *51:25 0
51 *38:6 *51:49 1.54008e-05
*RES
1 *241:X *51:10 48.4872 
2 *51:10 *172:A 40.9682 
3 *51:10 *51:25 22.2454 
4 *51:25 *51:33 43.914 
5 *51:33 *179:A1 20 
6 *51:25 *178:A1 20 
7 *51:25 *51:47 4.3466 
8 *51:47 *51:49 0.5356 
9 *51:49 *51:59 43.3372 
10 *51:59 *180:A1 22.266 
11 *51:59 *181:A 20 
12 *51:49 *186:A 20 
13 *51:47 *185:A 21.0918 
*END

*D_NET *52 0.00237244
*CONN
*I *226:A I *D sg13g2_dlygate4sd3_1
*I *251:A I *D sg13g2_buf_1
*I *174:B I *D sg13g2_nand2_1
*I *216:Q O *D sg13g2_dfrbpq_1
*CAP
1 *226:A 0
2 *251:A 0
3 *174:B 0.000124541
4 *216:Q 0.000199173
5 *52:31 0.000196379
6 *52:16 0.000696734
7 *52:8 0.000574987
8 *174:B *174:A 0
9 *174:B *218:RESET_B 0
10 *174:B *243:A 4.68833e-05
11 *52:16 *174:A 0
12 *52:16 *243:A 0.000176674
13 *52:16 *64:8 0
14 *52:31 *218:RESET_B 0
15 *52:31 *225:A 0.000281938
16 *52:31 *53:10 7.51285e-05
17 *197:A *52:8 0
18 *45:10 *52:16 0
*RES
1 *216:Q *52:8 22.2454 
2 *52:8 *52:16 44.0067 
3 *52:16 *174:B 21.1845 
4 *52:16 *52:31 42.5544 
5 *52:31 *251:A 20 
6 *52:8 *226:A 20 
*END

*D_NET *53 0.00387269
*CONN
*I *225:A I *D sg13g2_dlygate4sd3_1
*I *243:A I *D sg13g2_buf_1
*I *218:Q O *D sg13g2_dfrbpq_1
*CAP
1 *225:A 0.000177391
2 *243:A 0.000336777
3 *218:Q 0.000564561
4 *53:10 0.00107873
5 *243:A *65:6 0
6 *53:10 *66:10 0
7 *53:10 *75:10 0.000339406
8 *174:B *243:A 4.68833e-05
9 *218:CLK *53:10 0
10 *233:A *53:10 8.03692e-05
11 *23:8 *53:10 0
12 *45:10 *53:10 0.000714833
13 *52:16 *243:A 0.000176674
14 *52:31 *225:A 0.000281938
15 *52:31 *53:10 7.51285e-05
*RES
1 *218:Q *53:10 46.8186 
2 *53:10 *243:A 43.9449 
3 *53:10 *225:A 42.8428 
*END

*D_NET *54 0.0012472
*CONN
*I *244:A I *D sg13g2_buf_1
*I *234:A I *D sg13g2_dlygate4sd3_1
*I *202:Q O *D sg13g2_dfrbpq_1
*CAP
1 *244:A 0
2 *234:A 0.00027847
3 *202:Q 4.96967e-05
4 *54:27 0.000295435
5 *54:6 0.000623602
6 *54:27 *216:D 0
7 *235:A *234:A 0
8 *50:16 *54:27 0
9 *50:22 *54:27 0
*RES
1 *202:Q *54:6 20.5974 
2 *54:6 *234:A 23.0488 
3 *54:6 *54:27 42.9149 
4 *54:27 *244:A 20 
*END

*D_NET *55 0.00180234
*CONN
*I *210:RESET_B I *D sg13g2_dfrbpq_2
*I *211:L_HI O *D sg13g2_tiehi
*CAP
1 *210:RESET_B 8.14687e-05
2 *211:L_HI 0.000578776
3 *55:14 0.000660245
4 *210:RESET_B *78:12 0.000144956
5 *55:14 *84:35 0
6 *55:14 *85:17 0
7 *188:A1 *55:14 0.000336895
8 *189:A2 *55:14 0
9 *210:CLK *210:RESET_B 0
10 *49:22 *55:14 0
*RES
1 *211:L_HI *55:14 45.7268 
2 *55:14 *210:RESET_B 40.9682 
*END

*D_NET *56 0.000431604
*CONN
*I *218:RESET_B I *D sg13g2_dfrbpq_1
*I *219:L_HI O *D sg13g2_tiehi
*CAP
1 *218:RESET_B 0.000215802
2 *219:L_HI 0.000215802
3 count_o[6] *218:RESET_B 0
4 *174:B *218:RESET_B 0
5 *29:10 *218:RESET_B 0
6 *52:31 *218:RESET_B 0
*RES
1 *219:L_HI *218:RESET_B 42.266 
*END

*D_NET *57 0.000460097
*CONN
*I *208:RESET_B I *D sg13g2_dfrbpq_2
*I *209:L_HI O *D sg13g2_tiehi
*CAP
1 *208:RESET_B 0.000230048
2 *209:L_HI 0.000230048
*RES
1 *209:L_HI *208:RESET_B 42.6162 
*END

*D_NET *58 0.000509825
*CONN
*I *214:RESET_B I *D sg13g2_dfrbpq_1
*I *215:L_HI O *D sg13g2_tiehi
*CAP
1 *214:RESET_B 0.000254912
2 *215:L_HI 0.000254912
3 *192:B *214:RESET_B 0
4 *3:9 *214:RESET_B 0
5 *47:10 *214:RESET_B 0
*RES
1 *215:L_HI *214:RESET_B 42.266 
*END

*D_NET *59 0.00104857
*CONN
*I *206:RESET_B I *D sg13g2_dfrbpq_2
*I *207:L_HI O *D sg13g2_tiehi
*CAP
1 *206:RESET_B 0
2 *207:L_HI 0.000524287
3 *59:10 0.000524287
4 *59:10 *173:C 0
5 *59:10 *240:A 0
6 *59:10 *74:10 0
7 *59:10 *83:10 0
8 *206:CLK *59:10 0
*RES
1 *207:L_HI *59:10 46.077 
2 *59:10 *206:RESET_B 40 
*END

*D_NET *60 0.000580857
*CONN
*I *202:RESET_B I *D sg13g2_dfrbpq_1
*I *203:L_HI O *D sg13g2_tiehi
*CAP
1 *202:RESET_B 0.000201779
2 *203:L_HI 0.000201779
3 *202:RESET_B *68:12 0
4 *50:36 *202:RESET_B 0.000177299
*RES
1 *203:L_HI *202:RESET_B 42.1836 
*END

*D_NET *61 0.00152977
*CONN
*I *204:RESET_B I *D sg13g2_dfrbpq_2
*I *205:L_HI O *D sg13g2_tiehi
*CAP
1 *204:RESET_B 0.00023462
2 *205:L_HI 0.000297367
3 *61:14 0.000531987
4 *204:RESET_B *172:B 0
5 *50:36 *204:RESET_B 0
6 *51:10 *61:14 0.0004658
*RES
1 *205:L_HI *61:14 44.0582 
2 *61:14 *204:RESET_B 42.3428 
*END

*D_NET *62 0.00511006
*CONN
*I *224:A I *D sg13g2_buf_8
*I *200:B1 I *D sg13g2_o21ai_1
*I *242:X O *D sg13g2_buf_1
*CAP
1 *224:A 0.000269217
2 *200:B1 0
3 *242:X 0.00050859
4 *62:16 0.00148357
5 *62:8 0.00172294
6 *62:8 *171:A 0
7 *62:8 *77:10 0
8 *62:16 *194:A_N 0
9 *62:16 *77:10 0
10 *197:A *224:A 0
11 *199:B1 *224:A 0
12 *200:A1 *224:A 0
13 *200:A2 *62:16 0.000176369
14 *210:CLK *62:16 0.000209899
15 *221:A *62:16 0
16 *231:A *62:16 4.77425e-05
17 *237:A *62:16 7.94462e-05
18 *238:A *62:16 8.01995e-05
19 *42:12 *62:16 0.000177597
20 *47:10 *224:A 0.000339096
21 *47:10 *62:16 1.54008e-05
*RES
1 *242:X *62:8 46.0358 
2 *62:8 *62:16 31.5602 
3 *62:16 *200:B1 20 
4 *62:16 *224:A 22.8634 
*END

*D_NET *63 0.00116202
*CONN
*I *212:RESET_B I *D sg13g2_dfrbpq_2
*I *213:L_HI O *D sg13g2_tiehi
*CAP
1 *212:RESET_B 8.60497e-05
2 *213:L_HI 0.000422413
3 *63:10 0.000508463
4 *212:RESET_B *212:D 0.000145099
5 *63:10 *236:A 0
6 *63:10 *249:A 0
7 *63:10 *69:8 0
8 *3:9 *212:RESET_B 0
9 *49:50 *63:10 0
*RES
1 *213:L_HI *63:10 44.4702 
2 *63:10 *212:RESET_B 40.9682 
*END

*D_NET *64 0.0027404
*CONN
*I *216:RESET_B I *D sg13g2_dfrbpq_1
*I *217:L_HI O *D sg13g2_tiehi
*CAP
1 *216:RESET_B 0.000196664
2 *217:L_HI 0.000438655
3 *64:8 0.000635319
4 *216:RESET_B *216:D 0.000307241
5 *218:CLK *64:8 0.00092779
6 *222:A *216:RESET_B 0
7 *50:8 *64:8 0.000234726
8 *50:12 *216:RESET_B 0
9 *50:16 *64:8 0
10 *52:16 *64:8 0
*RES
1 *217:L_HI *64:8 46.5302 
2 *64:8 *216:RESET_B 42.266 
*END

*D_NET *65 0.000694703
*CONN
*I *174:A I *D sg13g2_nand2_1
*I *169:A I *D sg13g2_inv_1
*I *225:X O *D sg13g2_dlygate4sd3_1
*CAP
1 *174:A 0.000272327
2 *169:A 4.72978e-05
3 *225:X 2.77263e-05
4 *65:6 0.000347352