* NGSPICE file created from heichips25_ethernet.ext - technology: ihp-sg13g2

* Black-box entry subcircuit for sg13g2_decap_8 abstract view
.subckt sg13g2_decap_8 VDD VSS
.ends

* Black-box entry subcircuit for sg13g2_fill_2 abstract view
.subckt sg13g2_fill_2 VDD VSS
.ends

* Black-box entry subcircuit for sg13g2_tielo abstract view
.subckt sg13g2_tielo VDD VSS L_LO
.ends

* Black-box entry subcircuit for sg13g2_fill_1 abstract view
.subckt sg13g2_fill_1 VDD VSS
.ends

* Black-box entry subcircuit for sg13g2_decap_4 abstract view
.subckt sg13g2_decap_4 VDD VSS
.ends

* Black-box entry subcircuit for sg13g2_buf_1 abstract view
.subckt sg13g2_buf_1 A X VDD VSS
.ends

* Black-box entry subcircuit for sg13g2_inv_1 abstract view
.subckt sg13g2_inv_1 VDD Y A VSS
.ends

* Black-box entry subcircuit for line_driver abstract view
.subckt line_driver ethernet_dn ethernet_dp in_n in_p VGND VPWR
.ends

.subckt heichips25_ethernet VGND VPWR clk ena ethernet_dn ethernet_dp rst_n ui_in[0]
+ ui_in[1] ui_in[2] ui_in[3] ui_in[4] ui_in[5] ui_in[6] ui_in[7] uio_in[0] uio_in[1]
+ uio_in[2] uio_in[3] uio_in[4] uio_in[5] uio_in[6] uio_in[7] uio_oe[0] uio_oe[1]
+ uio_oe[2] uio_oe[3] uio_oe[4] uio_oe[5] uio_oe[6] uio_oe[7] uio_out[0] uio_out[1]
+ uio_out[2] uio_out[3] uio_out[4] uio_out[5] uio_out[6] uio_out[7] uo_out[0] uo_out[1]
+ uo_out[2] uo_out[3] uo_out[4] uo_out[5] uo_out[6] uo_out[7]
XFILLER_39_266 VPWR VGND sg13g2_decap_8
XFILLER_22_144 VPWR VGND sg13g2_decap_8
XFILLER_45_203 VPWR VGND sg13g2_decap_8
XFILLER_26_74 VPWR VGND sg13g2_decap_8
XFILLER_42_84 VPWR VGND sg13g2_decap_8
XFILLER_9_137 VPWR VGND sg13g2_decap_8
XFILLER_13_144 VPWR VGND sg13g2_decap_8
XFILLER_36_203 VPWR VGND sg13g2_decap_8
XFILLER_3_67 VPWR VGND sg13g2_decap_8
XFILLER_51_217 VPWR VGND sg13g2_decap_8
XFILLER_44_280 VPWR VGND sg13g2_decap_8
XFILLER_42_217 VPWR VGND sg13g2_decap_8
XFILLER_35_280 VPWR VGND sg13g2_decap_8
XFILLER_27_214 VPWR VGND sg13g2_decap_8
XFILLER_50_294 VPWR VGND sg13g2_decap_8
XFILLER_10_158 VPWR VGND sg13g2_decap_8
XFILLER_12_32 VPWR VGND sg13g2_decap_8
XFILLER_5_4 VPWR VGND sg13g2_decap_8
XFILLER_37_84 VPWR VGND sg13g2_decap_8
XFILLER_18_203 VPWR VGND sg13g2_decap_8
XFILLER_33_217 VPWR VGND sg13g2_decap_8
XFILLER_26_291 VPWR VGND sg13g2_decap_8
XFILLER_41_294 VPWR VGND sg13g2_decap_8
XFILLER_5_151 VPWR VGND sg13g2_decap_8
XFILLER_49_350 VPWR VGND sg13g2_fill_2
XFILLER_17_291 VPWR VGND sg13g2_decap_8
XFILLER_24_228 VPWR VGND sg13g2_decap_8
XFILLER_32_294 VPWR VGND sg13g2_decap_8
XFILLER_15_228 VPWR VGND sg13g2_decap_8
XFILLER_23_53 VPWR VGND sg13g2_decap_8
XFILLER_2_154 VPWR VGND sg13g2_decap_8
XFILLER_0_35 VPWR VGND sg13g2_decap_8
XFILLER_9_11 VPWR VGND sg13g2_decap_8
XFILLER_9_88 VPWR VGND sg13g2_decap_8
XFILLER_20_242 VPWR VGND sg13g2_decap_8
XFILLER_43_301 VPWR VGND sg13g2_decap_8
XFILLER_18_42 VPWR VGND sg13g2_decap_8
XFILLER_34_63 VPWR VGND sg13g2_decap_8
XFILLER_11_242 VPWR VGND sg13g2_decap_8
XFILLER_50_84 VPWR VGND sg13g2_decap_8
XFILLER_7_235 VPWR VGND sg13g2_decap_8
XFILLER_46_161 VPWR VGND sg13g2_decap_8
XFILLER_34_301 VPWR VGND sg13g2_decap_8
XFILLER_37_161 VPWR VGND sg13g2_decap_8
XFILLER_25_312 VPWR VGND sg13g2_decap_8
XFILLER_40_315 VPWR VGND sg13g2_decap_8
XFILLER_4_249 VPWR VGND sg13g2_decap_8
XFILLER_20_32 VPWR VGND sg13g2_decap_8
XFILLER_29_74 VPWR VGND sg13g2_decap_8
XFILLER_45_84 VPWR VGND sg13g2_decap_8
XFILLER_43_175 VPWR VGND sg13g2_decap_8
XFILLER_31_315 VPWR VGND sg13g2_decap_8
XFILLER_16_312 VPWR VGND sg13g2_decap_8
XFILLER_28_161 VPWR VGND sg13g2_decap_8
XFILLER_6_67 VPWR VGND sg13g2_decap_8
XFILLER_20_4 VPWR VGND sg13g2_decap_8
XFILLER_19_172 VPWR VGND sg13g2_decap_8
XFILLER_26_109 VPWR VGND sg13g2_decap_8
XFILLER_34_175 VPWR VGND sg13g2_decap_8
XFILLER_22_326 VPWR VGND sg13g2_decap_8
Xheichips25_ethernet_12 VPWR VGND uo_out[3] sg13g2_tielo
XFILLER_15_32 VPWR VGND sg13g2_decap_8
XFILLER_17_109 VPWR VGND sg13g2_decap_8
Xheichips25_ethernet_23 VPWR VGND uio_oe[6] sg13g2_tielo
XFILLER_40_189 VPWR VGND sg13g2_decap_8
XFILLER_40_112 VPWR VGND sg13g2_decap_8
XFILLER_31_42 VPWR VGND sg13g2_decap_8
XFILLER_9_319 VPWR VGND sg13g2_decap_8
XFILLER_13_326 VPWR VGND sg13g2_decap_8
XFILLER_25_186 VPWR VGND sg13g2_decap_8
XFILLER_48_245 VPWR VGND sg13g2_decap_8
XFILLER_0_252 VPWR VGND sg13g2_decap_8
XFILLER_31_112 VPWR VGND sg13g2_decap_8
XFILLER_16_186 VPWR VGND sg13g2_decap_8
XFILLER_31_189 VPWR VGND sg13g2_decap_8
XFILLER_8_352 VPWR VGND sg13g2_fill_1
XFILLER_39_245 VPWR VGND sg13g2_decap_8
XFILLER_22_123 VPWR VGND sg13g2_decap_8
XFILLER_45_259 VPWR VGND sg13g2_decap_8
XFILLER_9_116 VPWR VGND sg13g2_decap_8
XFILLER_13_123 VPWR VGND sg13g2_decap_8
XFILLER_26_53 VPWR VGND sg13g2_decap_8
XFILLER_42_63 VPWR VGND sg13g2_decap_8
XFILLER_5_333 VPWR VGND sg13g2_decap_8
XFILLER_3_46 VPWR VGND sg13g2_decap_8
XFILLER_36_259 VPWR VGND sg13g2_decap_8
XFILLER_8_182 VPWR VGND sg13g2_decap_8
XFILLER_50_273 VPWR VGND sg13g2_decap_8
XFILLER_10_137 VPWR VGND sg13g2_decap_8
XFILLER_12_11 VPWR VGND sg13g2_decap_8
XFILLER_12_88 VPWR VGND sg13g2_decap_8
XFILLER_2_336 VPWR VGND sg13g2_decap_8
XFILLER_37_63 VPWR VGND sg13g2_decap_8
XFILLER_18_259 VPWR VGND sg13g2_decap_8
XFILLER_41_273 VPWR VGND sg13g2_decap_8
XFILLER_26_270 VPWR VGND sg13g2_decap_8
XFILLER_5_130 VPWR VGND sg13g2_decap_8
XFILLER_17_270 VPWR VGND sg13g2_decap_8
XFILLER_24_207 VPWR VGND sg13g2_decap_8
XFILLER_32_273 VPWR VGND sg13g2_decap_8
XFILLER_15_207 VPWR VGND sg13g2_decap_8
XFILLER_23_32 VPWR VGND sg13g2_decap_8
XFILLER_23_284 VPWR VGND sg13g2_decap_8
XFILLER_48_84 VPWR VGND sg13g2_decap_8
XFILLER_2_133 VPWR VGND sg13g2_decap_8
XFILLER_46_343 VPWR VGND sg13g2_decap_8
XFILLER_0_14 VPWR VGND sg13g2_decap_8
XFILLER_9_67 VPWR VGND sg13g2_decap_8
XFILLER_14_284 VPWR VGND sg13g2_decap_8
XFILLER_37_343 VPWR VGND sg13g2_decap_8
XFILLER_20_221 VPWR VGND sg13g2_decap_8
XFILLER_20_298 VPWR VGND sg13g2_decap_8
XFILLER_28_343 VPWR VGND sg13g2_decap_8
XFILLER_18_21 VPWR VGND sg13g2_decap_8
XFILLER_18_98 VPWR VGND sg13g2_decap_8
XFILLER_34_42 VPWR VGND sg13g2_decap_8
XFILLER_7_214 VPWR VGND sg13g2_decap_8
XFILLER_11_221 VPWR VGND sg13g2_decap_8
XFILLER_11_298 VPWR VGND sg13g2_decap_8
XFILLER_50_63 VPWR VGND sg13g2_decap_8
XFILLER_46_140 VPWR VGND sg13g2_decap_8
XFILLER_41_0 VPWR VGND sg13g2_decap_8
XFILLER_6_291 VPWR VGND sg13g2_decap_8
XFILLER_37_140 VPWR VGND sg13g2_decap_8
XFILLER_4_228 VPWR VGND sg13g2_decap_8
XFILLER_20_11 VPWR VGND sg13g2_decap_8
XFILLER_20_88 VPWR VGND sg13g2_decap_8
XFILLER_29_53 VPWR VGND sg13g2_decap_8
XFILLER_28_140 VPWR VGND sg13g2_decap_8
XFILLER_45_63 VPWR VGND sg13g2_decap_8
XFILLER_43_154 VPWR VGND sg13g2_decap_8
XFILLER_6_46 VPWR VGND sg13g2_decap_8
XFILLER_13_4 VPWR VGND sg13g2_decap_8
XFILLER_19_151 VPWR VGND sg13g2_decap_8
XFILLER_34_154 VPWR VGND sg13g2_decap_8
XFILLER_22_305 VPWR VGND sg13g2_decap_8
Xheichips25_ethernet_13 VPWR VGND uo_out[4] sg13g2_tielo
XFILLER_13_305 VPWR VGND sg13g2_decap_8
XFILLER_15_11 VPWR VGND sg13g2_decap_8
XFILLER_25_165 VPWR VGND sg13g2_decap_8
Xheichips25_ethernet_24 VPWR VGND uio_oe[7] sg13g2_tielo
XFILLER_40_168 VPWR VGND sg13g2_decap_8
XFILLER_31_21 VPWR VGND sg13g2_decap_8
XFILLER_15_88 VPWR VGND sg13g2_decap_8
XFILLER_31_98 VPWR VGND sg13g2_decap_8
XFILLER_0_231 VPWR VGND sg13g2_decap_8
XFILLER_48_224 VPWR VGND sg13g2_decap_8
XFILLER_31_168 VPWR VGND sg13g2_decap_8
XFILLER_16_165 VPWR VGND sg13g2_decap_8
XFILLER_39_224 VPWR VGND sg13g2_decap_8
XFILLER_22_102 VPWR VGND sg13g2_decap_8
XFILLER_10_319 VPWR VGND sg13g2_decap_8
XFILLER_22_179 VPWR VGND sg13g2_decap_8
XFILLER_45_238 VPWR VGND sg13g2_decap_8
XFILLER_26_32 VPWR VGND sg13g2_decap_8
XFILLER_42_42 VPWR VGND sg13g2_decap_8
XFILLER_13_102 VPWR VGND sg13g2_decap_8
XFILLER_13_179 VPWR VGND sg13g2_decap_8
XFILLER_5_312 VPWR VGND sg13g2_decap_8
XFILLER_3_25 VPWR VGND sg13g2_decap_8
XFILLER_36_238 VPWR VGND sg13g2_decap_8
XFILLER_8_161 VPWR VGND sg13g2_decap_8
XFILLER_27_249 VPWR VGND sg13g2_decap_8
XFILLER_50_252 VPWR VGND sg13g2_decap_8
XFILLER_10_116 VPWR VGND sg13g2_decap_8
XFILLER_6_109 VPWR VGND sg13g2_decap_8
XFILLER_12_67 VPWR VGND sg13g2_decap_8
XFILLER_2_315 VPWR VGND sg13g2_decap_8
XFILLER_37_42 VPWR VGND sg13g2_decap_8
XFILLER_18_238 VPWR VGND sg13g2_decap_8
XFILLER_41_252 VPWR VGND sg13g2_decap_8
XFILLER_45_7 VPWR VGND sg13g2_decap_8
XFILLER_5_186 VPWR VGND sg13g2_decap_8
XFILLER_49_352 VPWR VGND sg13g2_fill_1
XFILLER_32_252 VPWR VGND sg13g2_decap_8
XFILLER_23_11 VPWR VGND sg13g2_decap_8
XFILLER_23_88 VPWR VGND sg13g2_decap_8
XFILLER_23_263 VPWR VGND sg13g2_decap_8
XFILLER_2_112 VPWR VGND sg13g2_decap_8
XFILLER_48_63 VPWR VGND sg13g2_decap_8
XFILLER_46_322 VPWR VGND sg13g2_decap_8
XFILLER_2_189 VPWR VGND sg13g2_decap_8
XFILLER_14_263 VPWR VGND sg13g2_decap_8
XFILLER_9_46 VPWR VGND sg13g2_decap_8
XFILLER_49_182 VPWR VGND sg13g2_decap_8
XFILLER_37_322 VPWR VGND sg13g2_decap_8
XFILLER_20_200 VPWR VGND sg13g2_decap_8
XFILLER_20_277 VPWR VGND sg13g2_decap_8
XFILLER_47_119 VPWR VGND sg13g2_decap_8
XFILLER_28_322 VPWR VGND sg13g2_decap_8
XFILLER_43_336 VPWR VGND sg13g2_decap_8
XFILLER_34_21 VPWR VGND sg13g2_decap_8
XFILLER_18_77 VPWR VGND sg13g2_decap_8
XFILLER_50_42 VPWR VGND sg13g2_decap_8
XFILLER_34_98 VPWR VGND sg13g2_decap_8
XFILLER_11_200 VPWR VGND sg13g2_decap_8
XFILLER_11_277 VPWR VGND sg13g2_decap_8
XFILLER_1_0 VPWR VGND sg13g2_decap_8
XFILLER_38_119 VPWR VGND sg13g2_decap_8
XFILLER_19_333 VPWR VGND sg13g2_decap_8
XFILLER_46_196 VPWR VGND sg13g2_decap_8
XFILLER_34_336 VPWR VGND sg13g2_decap_8
XFILLER_6_270 VPWR VGND sg13g2_decap_8
XFILLER_34_0 VPWR VGND sg13g2_decap_8
XFILLER_37_196 VPWR VGND sg13g2_decap_8
XFILLER_1_91 VPWR VGND sg13g2_decap_8
XFILLER_25_347 VPWR VGND sg13g2_decap_4
XFILLER_4_207 VPWR VGND sg13g2_decap_8
XFILLER_20_67 VPWR VGND sg13g2_decap_8
XFILLER_29_32 VPWR VGND sg13g2_decap_8
XFILLER_45_42 VPWR VGND sg13g2_decap_8
XFILLER_43_133 VPWR VGND sg13g2_decap_8
XFILLER_16_347 VPWR VGND sg13g2_decap_4
XFILLER_28_196 VPWR VGND sg13g2_decap_8
XFILLER_6_25 VPWR VGND sg13g2_decap_8
XFILLER_3_284 VPWR VGND sg13g2_decap_8
XFILLER_34_133 VPWR VGND sg13g2_decap_8
XFILLER_19_130 VPWR VGND sg13g2_decap_8
Xheichips25_ethernet_14 VPWR VGND uo_out[5] sg13g2_tielo
XFILLER_40_147 VPWR VGND sg13g2_decap_8
XFILLER_15_67 VPWR VGND sg13g2_decap_8
XFILLER_25_144 VPWR VGND sg13g2_decap_8
XFILLER_31_77 VPWR VGND sg13g2_decap_8
XFILLER_48_203 VPWR VGND sg13g2_decap_8
XFILLER_0_210 VPWR VGND sg13g2_decap_8
XFILLER_0_287 VPWR VGND sg13g2_decap_8
XFILLER_16_144 VPWR VGND sg13g2_decap_8
XFILLER_31_147 VPWR VGND sg13g2_decap_8
XFILLER_8_343 VPWR VGND sg13g2_decap_8
XFILLER_39_203 VPWR VGND sg13g2_decap_8
XFILLER_47_280 VPWR VGND sg13g2_decap_8
XFILLER_22_158 VPWR VGND sg13g2_decap_8
XFILLER_45_217 VPWR VGND sg13g2_decap_8
XFILLER_38_280 VPWR VGND sg13g2_decap_8
XFILLER_26_11 VPWR VGND sg13g2_decap_8
XFILLER_42_21 VPWR VGND sg13g2_decap_8
XFILLER_13_158 VPWR VGND sg13g2_decap_8
XFILLER_26_88 VPWR VGND sg13g2_decap_8
XFILLER_42_98 VPWR VGND sg13g2_decap_8
XFILLER_36_217 VPWR VGND sg13g2_decap_8
XFILLER_44_294 VPWR VGND sg13g2_decap_8
XFILLER_29_291 VPWR VGND sg13g2_decap_8
XFILLER_8_140 VPWR VGND sg13g2_decap_8
XFILLER_27_228 VPWR VGND sg13g2_decap_8
XFILLER_50_231 VPWR VGND sg13g2_decap_8
XFILLER_35_294 VPWR VGND sg13g2_decap_8
XFILLER_12_46 VPWR VGND sg13g2_decap_8
XFILLER_37_21 VPWR VGND sg13g2_decap_8
XFILLER_41_231 VPWR VGND sg13g2_decap_8
XFILLER_37_98 VPWR VGND sg13g2_decap_8
XFILLER_18_217 VPWR VGND sg13g2_decap_8
XFILLER_38_7 VPWR VGND sg13g2_decap_8
XFILLER_5_165 VPWR VGND sg13g2_decap_8
XFILLER_32_231 VPWR VGND sg13g2_decap_8
XFILLER_23_67 VPWR VGND sg13g2_decap_8
XFILLER_23_242 VPWR VGND sg13g2_decap_8
XFILLER_2_168 VPWR VGND sg13g2_decap_8
XFILLER_3_4 VPWR VGND sg13g2_decap_8
XFILLER_48_42 VPWR VGND sg13g2_decap_8
XFILLER_46_301 VPWR VGND sg13g2_decap_8
XFILLER_0_49 VPWR VGND sg13g2_decap_8
XFILLER_9_25 VPWR VGND sg13g2_decap_8
XFILLER_14_242 VPWR VGND sg13g2_decap_8
XFILLER_49_161 VPWR VGND sg13g2_decap_8
XFILLER_37_301 VPWR VGND sg13g2_decap_8
XFILLER_20_256 VPWR VGND sg13g2_decap_8
XFILLER_28_301 VPWR VGND sg13g2_decap_8
XFILLER_18_56 VPWR VGND sg13g2_decap_8
XFILLER_43_315 VPWR VGND sg13g2_decap_8
XFILLER_34_77 VPWR VGND sg13g2_decap_8
XFILLER_50_98 VPWR VGND sg13g2_decap_8
XFILLER_50_21 VPWR VGND sg13g2_decap_8
XFILLER_7_249 VPWR VGND sg13g2_decap_8
XFILLER_11_256 VPWR VGND sg13g2_decap_8
XFILLER_46_175 VPWR VGND sg13g2_decap_8
XFILLER_34_315 VPWR VGND sg13g2_decap_8
XFILLER_19_312 VPWR VGND sg13g2_decap_8
XFILLER_29_109 VPWR VGND sg13g2_decap_8
XFILLER_40_329 VPWR VGND sg13g2_decap_8
XFILLER_37_175 VPWR VGND sg13g2_decap_8
XFILLER_1_70 VPWR VGND sg13g2_decap_8
XFILLER_25_326 VPWR VGND sg13g2_decap_8
XFILLER_20_46 VPWR VGND sg13g2_decap_8
XFILLER_29_11 VPWR VGND sg13g2_decap_8
XFILLER_45_21 VPWR VGND sg13g2_decap_8
XFILLER_43_112 VPWR VGND sg13g2_decap_8
XFILLER_16_326 VPWR VGND sg13g2_decap_8
XFILLER_29_88 VPWR VGND sg13g2_decap_8
XFILLER_28_175 VPWR VGND sg13g2_decap_8
XFILLER_45_98 VPWR VGND sg13g2_decap_8
XFILLER_43_189 VPWR VGND sg13g2_decap_8
XFILLER_31_329 VPWR VGND sg13g2_decap_8
XFILLER_3_263 VPWR VGND sg13g2_decap_8
XFILLER_34_189 VPWR VGND sg13g2_decap_8
XFILLER_34_112 VPWR VGND sg13g2_decap_8
XFILLER_19_186 VPWR VGND sg13g2_decap_8
Xheichips25_ethernet_15 VPWR VGND uo_out[6] sg13g2_tielo
XFILLER_25_123 VPWR VGND sg13g2_decap_8
XFILLER_40_126 VPWR VGND sg13g2_decap_8
XFILLER_15_46 VPWR VGND sg13g2_decap_8
XFILLER_21_340 VPWR VGND sg13g2_decap_8
XFILLER_21_351 VPWR VGND sg13g2_fill_2
XFILLER_31_56 VPWR VGND sg13g2_decap_8
XFILLER_48_259 VPWR VGND sg13g2_decap_8
XFILLER_0_266 VPWR VGND sg13g2_decap_8
XFILLER_16_123 VPWR VGND sg13g2_decap_8
XFILLER_31_126 VPWR VGND sg13g2_decap_8
XFILLER_8_322 VPWR VGND sg13g2_decap_8
XFILLER_12_340 VPWR VGND sg13g2_decap_8
XFILLER_12_351 VPWR VGND sg13g2_fill_2
XFILLER_39_259 VPWR VGND sg13g2_decap_8
XFILLER_22_137 VPWR VGND sg13g2_decap_8
XFILLER_26_67 VPWR VGND sg13g2_decap_8
XFILLER_42_77 VPWR VGND sg13g2_decap_8
XFILLER_13_137 VPWR VGND sg13g2_decap_8
XFILLER_5_347 VPWR VGND sg13g2_decap_4
XFILLER_29_270 VPWR VGND sg13g2_decap_8
XFILLER_44_273 VPWR VGND sg13g2_decap_8
XFILLER_8_196 VPWR VGND sg13g2_decap_8
XFILLER_35_273 VPWR VGND sg13g2_decap_8
XFILLER_27_207 VPWR VGND sg13g2_decap_8
XFILLER_50_287 VPWR VGND sg13g2_decap_8
XFILLER_50_210 VPWR VGND sg13g2_decap_8
XFILLER_12_25 VPWR VGND sg13g2_decap_8
XFILLER_41_210 VPWR VGND sg13g2_decap_8
XFILLER_37_77 VPWR VGND sg13g2_decap_8
XFILLER_26_284 VPWR VGND sg13g2_decap_8
XFILLER_41_287 VPWR VGND sg13g2_decap_8
XFILLER_5_144 VPWR VGND sg13g2_decap_8
XFILLER_1_350 VPWR VGND sg13g2_fill_2
XFILLER_49_343 VPWR VGND sg13g2_decap_8
XFILLER_32_287 VPWR VGND sg13g2_decap_8
XFILLER_32_210 VPWR VGND sg13g2_decap_8
XFILLER_17_284 VPWR VGND sg13g2_decap_8
XFILLER_4_81 VPWR VGND sg13g2_decap_8
XFILLER_23_221 VPWR VGND sg13g2_decap_8
XFILLER_23_46 VPWR VGND sg13g2_decap_8
XFILLER_23_298 VPWR VGND sg13g2_decap_8
XFILLER_48_21 VPWR VGND sg13g2_decap_8
XFILLER_2_147 VPWR VGND sg13g2_decap_8
XFILLER_48_98 VPWR VGND sg13g2_decap_8
XFILLER_0_28 VPWR VGND sg13g2_decap_8
XFILLER_14_221 VPWR VGND sg13g2_decap_8
XFILLER_14_298 VPWR VGND sg13g2_decap_8
XFILLER_50_7 VPWR VGND sg13g2_decap_8
XFILLER_49_140 VPWR VGND sg13g2_decap_8
XFILLER_29_4 VPWR VGND sg13g2_decap_8
XFILLER_9_291 VPWR VGND sg13g2_decap_8
XFILLER_20_235 VPWR VGND sg13g2_decap_8
XFILLER_18_35 VPWR VGND sg13g2_decap_8
XFILLER_34_56 VPWR VGND sg13g2_decap_8
XFILLER_11_235 VPWR VGND sg13g2_decap_8
XFILLER_50_77 VPWR VGND sg13g2_decap_8
XFILLER_7_228 VPWR VGND sg13g2_decap_8
XFILLER_46_154 VPWR VGND sg13g2_decap_8
XFILLER_37_154 VPWR VGND sg13g2_decap_8
XFILLER_25_305 VPWR VGND sg13g2_decap_8
XFILLER_40_308 VPWR VGND sg13g2_decap_8
XFILLER_20_25 VPWR VGND sg13g2_decap_8
XFILLER_29_67 VPWR VGND sg13g2_decap_8
XFILLER_45_77 VPWR VGND sg13g2_decap_8
XFILLER_43_168 VPWR VGND sg13g2_decap_8
XFILLER_31_308 VPWR VGND sg13g2_decap_8
XFILLER_16_305 VPWR VGND sg13g2_decap_8
XFILLER_28_154 VPWR VGND sg13g2_decap_8
XFILLER_3_242 VPWR VGND sg13g2_decap_8
XFILLER_19_165 VPWR VGND sg13g2_decap_8
XFILLER_34_168 VPWR VGND sg13g2_decap_8
XFILLER_22_319 VPWR VGND sg13g2_decap_8
Xheichips25_ethernet_16 VPWR VGND uo_out[7] sg13g2_tielo
XFILLER_25_102 VPWR VGND sg13g2_decap_8
XFILLER_40_105 VPWR VGND sg13g2_decap_8
XFILLER_31_35 VPWR VGND sg13g2_decap_8
XFILLER_13_319 VPWR VGND sg13g2_decap_8
XFILLER_15_25 VPWR VGND sg13g2_decap_8
XFILLER_25_179 VPWR VGND sg13g2_decap_8
XFILLER_48_238 VPWR VGND sg13g2_decap_8
XFILLER_0_245 VPWR VGND sg13g2_decap_8
XFILLER_31_105 VPWR VGND sg13g2_decap_8
XFILLER_16_102 VPWR VGND sg13g2_decap_8
XFILLER_16_179 VPWR VGND sg13g2_decap_8
XFILLER_8_301 VPWR VGND sg13g2_decap_8
XFILLER_39_238 VPWR VGND sg13g2_decap_8
XFILLER_11_4 VPWR VGND sg13g2_decap_8
XFILLER_22_116 VPWR VGND sg13g2_decap_8
XFILLER_30_193 VPWR VGND sg13g2_decap_8
XFILLER_7_81 VPWR VGND sg13g2_decap_8
XFILLER_13_116 VPWR VGND sg13g2_decap_8
XFILLER_26_46 VPWR VGND sg13g2_decap_8
XFILLER_42_56 VPWR VGND sg13g2_decap_8
XFILLER_5_326 VPWR VGND sg13g2_decap_8
XFILLER_9_109 VPWR VGND sg13g2_decap_8
XFILLER_21_193 VPWR VGND sg13g2_decap_8
XFILLER_3_39 VPWR VGND sg13g2_decap_8
XFILLER_44_252 VPWR VGND sg13g2_decap_8
XFILLER_8_175 VPWR VGND sg13g2_decap_8
XFILLER_12_193 VPWR VGND sg13g2_decap_8
XFILLER_35_252 VPWR VGND sg13g2_decap_8
XFILLER_50_266 VPWR VGND sg13g2_decap_8
XFILLER_2_329 VPWR VGND sg13g2_decap_8
XFILLER_37_56 VPWR VGND sg13g2_decap_8
XFILLER_41_266 VPWR VGND sg13g2_decap_8
XFILLER_26_263 VPWR VGND sg13g2_decap_8
XFILLER_5_123 VPWR VGND sg13g2_decap_8
XFILLER_49_322 VPWR VGND sg13g2_decap_8
XFILLER_17_263 VPWR VGND sg13g2_decap_8
XFILLER_32_266 VPWR VGND sg13g2_decap_8
XFILLER_4_60 VPWR VGND sg13g2_decap_8
XFILLER_23_25 VPWR VGND sg13g2_decap_8
XFILLER_23_200 VPWR VGND sg13g2_decap_8
XFILLER_23_277 VPWR VGND sg13g2_decap_8
XFILLER_2_126 VPWR VGND sg13g2_decap_8
XFILLER_48_77 VPWR VGND sg13g2_decap_8
XFILLER_46_336 VPWR VGND sg13g2_decap_8
XFILLER_14_200 VPWR VGND sg13g2_decap_8
XFILLER_14_277 VPWR VGND sg13g2_decap_8
XFILLER_43_7 VPWR VGND sg13g2_decap_8
XFILLER_49_196 VPWR VGND sg13g2_decap_8
XFILLER_37_336 VPWR VGND sg13g2_decap_8
XFILLER_20_214 VPWR VGND sg13g2_decap_8
XFILLER_9_270 VPWR VGND sg13g2_decap_8
XFILLER_28_336 VPWR VGND sg13g2_decap_8
XFILLER_18_14 VPWR VGND sg13g2_decap_8
XFILLER_51_350 VPWR VGND sg13g2_fill_2
XFILLER_34_35 VPWR VGND sg13g2_decap_8
XFILLER_7_207 VPWR VGND sg13g2_decap_8
XFILLER_11_214 VPWR VGND sg13g2_decap_8
XFILLER_50_56 VPWR VGND sg13g2_decap_8
XFILLER_46_133 VPWR VGND sg13g2_decap_8
XFILLER_19_347 VPWR VGND sg13g2_decap_4
XFILLER_42_350 VPWR VGND sg13g2_fill_2
XFILLER_10_291 VPWR VGND sg13g2_decap_8
XFILLER_6_284 VPWR VGND sg13g2_decap_8
XFILLER_37_133 VPWR VGND sg13g2_decap_8
XFILLER_33_350 VPWR VGND sg13g2_fill_2
XFILLER_29_46 VPWR VGND sg13g2_decap_8
XFILLER_45_56 VPWR VGND sg13g2_decap_8
XFILLER_43_147 VPWR VGND sg13g2_decap_8
XFILLER_28_133 VPWR VGND sg13g2_decap_8
XFILLER_6_39 VPWR VGND sg13g2_decap_8
XFILLER_3_298 VPWR VGND sg13g2_decap_8
XFILLER_3_221 VPWR VGND sg13g2_decap_8
XFILLER_10_81 VPWR VGND sg13g2_decap_8
XFILLER_19_144 VPWR VGND sg13g2_decap_8
XFILLER_34_147 VPWR VGND sg13g2_decap_8
XFILLER_32_0 VPWR VGND sg13g2_decap_8
Xheichips25_ethernet_17 VPWR VGND uio_oe[0] sg13g2_tielo
XFILLER_25_158 VPWR VGND sg13g2_decap_8
XFILLER_31_14 VPWR VGND sg13g2_decap_8
XFILLER_0_224 VPWR VGND sg13g2_decap_8
XFILLER_48_217 VPWR VGND sg13g2_decap_8
XFILLER_16_158 VPWR VGND sg13g2_decap_8
XFILLER_39_217 VPWR VGND sg13g2_decap_8
XFILLER_47_294 VPWR VGND sg13g2_decap_8
XFILLER_30_172 VPWR VGND sg13g2_decap_8
XFILLER_7_60 VPWR VGND sg13g2_decap_8
XFILLER_42_35 VPWR VGND sg13g2_decap_8
XFILLER_38_294 VPWR VGND sg13g2_decap_8
XFILLER_26_25 VPWR VGND sg13g2_decap_8
XFILLER_5_305 VPWR VGND sg13g2_decap_8
XFILLER_21_172 VPWR VGND sg13g2_decap_8
XFILLER_3_18 VPWR VGND sg13g2_decap_8
XFILLER_44_231 VPWR VGND sg13g2_decap_8
XFILLER_8_154 VPWR VGND sg13g2_decap_8
XFILLER_12_172 VPWR VGND sg13g2_decap_8
XFILLER_50_245 VPWR VGND sg13g2_decap_8
XFILLER_35_231 VPWR VGND sg13g2_decap_8
XFILLER_10_109 VPWR VGND sg13g2_decap_8
XFILLER_2_308 VPWR VGND sg13g2_decap_8
XFILLER_37_35 VPWR VGND sg13g2_decap_8
XFILLER_26_242 VPWR VGND sg13g2_decap_8
XFILLER_41_245 VPWR VGND sg13g2_decap_8
XFILLER_5_179 VPWR VGND sg13g2_decap_8
XFILLER_5_102 VPWR VGND sg13g2_decap_8
XFILLER_49_301 VPWR VGND sg13g2_decap_8
XFILLER_1_352 VPWR VGND sg13g2_fill_1
XFILLER_32_245 VPWR VGND sg13g2_decap_8
XFILLER_17_242 VPWR VGND sg13g2_decap_8
XFILLER_23_256 VPWR VGND sg13g2_decap_8
XFILLER_2_105 VPWR VGND sg13g2_decap_8
XFILLER_48_56 VPWR VGND sg13g2_decap_8
XFILLER_46_315 VPWR VGND sg13g2_decap_8
XFILLER_14_256 VPWR VGND sg13g2_decap_8
XFILLER_9_39 VPWR VGND sg13g2_decap_8
XFILLER_13_81 VPWR VGND sg13g2_decap_8
XFILLER_36_7 VPWR VGND sg13g2_decap_8
XFILLER_49_175 VPWR VGND sg13g2_decap_8
XFILLER_37_315 VPWR VGND sg13g2_decap_8
XFILLER_1_182 VPWR VGND sg13g2_decap_8
XFILLER_28_315 VPWR VGND sg13g2_decap_8
XFILLER_43_329 VPWR VGND sg13g2_decap_8
XFILLER_34_14 VPWR VGND sg13g2_decap_8
XFILLER_50_35 VPWR VGND sg13g2_decap_8
XFILLER_46_112 VPWR VGND sg13g2_decap_8
XFILLER_19_326 VPWR VGND sg13g2_decap_8
XFILLER_46_189 VPWR VGND sg13g2_decap_8
XFILLER_34_329 VPWR VGND sg13g2_decap_8
XFILLER_6_263 VPWR VGND sg13g2_decap_8
XFILLER_10_270 VPWR VGND sg13g2_decap_8
XFILLER_37_189 VPWR VGND sg13g2_decap_8
XFILLER_37_112 VPWR VGND sg13g2_decap_8
XFILLER_1_84 VPWR VGND sg13g2_decap_8
XFILLER_29_25 VPWR VGND sg13g2_decap_8
XFILLER_28_112 VPWR VGND sg13g2_decap_8
XFILLER_45_35 VPWR VGND sg13g2_decap_8
XFILLER_43_126 VPWR VGND sg13g2_decap_8
XFILLER_24_340 VPWR VGND sg13g2_decap_8
XFILLER_24_351 VPWR VGND sg13g2_fill_2
XFILLER_28_189 VPWR VGND sg13g2_decap_8
XFILLER_6_18 VPWR VGND sg13g2_decap_8
XFILLER_3_200 VPWR VGND sg13g2_decap_8
XFILLER_3_277 VPWR VGND sg13g2_decap_8
XFILLER_10_60 VPWR VGND sg13g2_decap_8
XFILLER_34_126 VPWR VGND sg13g2_decap_8
XFILLER_19_123 VPWR VGND sg13g2_decap_8
XFILLER_30_321 VPWR VGND sg13g2_fill_1
XFILLER_30_332 VPWR VGND sg13g2_decap_8
XFILLER_15_340 VPWR VGND sg13g2_decap_8
XFILLER_15_351 VPWR VGND sg13g2_fill_2
Xheichips25_ethernet_18 VPWR VGND uio_oe[1] sg13g2_tielo
XFILLER_25_137 VPWR VGND sg13g2_decap_8
XFILLER_0_203 VPWR VGND sg13g2_decap_8
XFILLER_16_137 VPWR VGND sg13g2_decap_8
XFILLER_8_336 VPWR VGND sg13g2_decap_8
XFILLER_21_81 VPWR VGND sg13g2_decap_8
XFILLER_47_273 VPWR VGND sg13g2_decap_8
XFILLER_30_151 VPWR VGND sg13g2_decap_8
XFILLER_38_273 VPWR VGND sg13g2_decap_8
XFILLER_42_14 VPWR VGND sg13g2_decap_8
XFILLER_21_151 VPWR VGND sg13g2_decap_8
XFILLER_44_287 VPWR VGND sg13g2_decap_8
XFILLER_44_210 VPWR VGND sg13g2_decap_8
XFILLER_29_284 VPWR VGND sg13g2_decap_8
XFILLER_32_91 VPWR VGND sg13g2_decap_8
XFILLER_8_133 VPWR VGND sg13g2_decap_8
XFILLER_12_151 VPWR VGND sg13g2_decap_8
XFILLER_16_81 VPWR VGND sg13g2_decap_8
XFILLER_35_210 VPWR VGND sg13g2_decap_8
XFILLER_50_224 VPWR VGND sg13g2_decap_8
XFILLER_35_287 VPWR VGND sg13g2_decap_8
XFILLER_12_39 VPWR VGND sg13g2_decap_8
XFILLER_37_14 VPWR VGND sg13g2_decap_8
XFILLER_41_224 VPWR VGND sg13g2_decap_8
XFILLER_26_221 VPWR VGND sg13g2_decap_8
XFILLER_26_298 VPWR VGND sg13g2_decap_8
XFILLER_5_158 VPWR VGND sg13g2_decap_8
XFILLER_17_221 VPWR VGND sg13g2_decap_8
XFILLER_32_224 VPWR VGND sg13g2_decap_8
XFILLER_17_298 VPWR VGND sg13g2_decap_8
XFILLER_4_95 VPWR VGND sg13g2_decap_8
XFILLER_23_235 VPWR VGND sg13g2_decap_8
XFILLER_48_35 VPWR VGND sg13g2_decap_8
XFILLER_9_18 VPWR VGND sg13g2_decap_8
XFILLER_14_235 VPWR VGND sg13g2_decap_8
XFILLER_13_60 VPWR VGND sg13g2_decap_8
XFILLER_1_161 VPWR VGND sg13g2_decap_8
XFILLER_49_154 VPWR VGND sg13g2_decap_8
XFILLER_20_249 VPWR VGND sg13g2_decap_8
XFILLER_18_49 VPWR VGND sg13g2_decap_8
XFILLER_51_352 VPWR VGND sg13g2_fill_1
XFILLER_43_308 VPWR VGND sg13g2_decap_8
XFILLER_50_14 VPWR VGND sg13g2_decap_8
XFILLER_11_249 VPWR VGND sg13g2_decap_8
XFILLER_46_168 VPWR VGND sg13g2_decap_8
XFILLER_34_308 VPWR VGND sg13g2_decap_8
XFILLER_19_305 VPWR VGND sg13g2_decap_8
XFILLER_42_352 VPWR VGND sg13g2_fill_1
XFILLER_24_81 VPWR VGND sg13g2_decap_8
XFILLER_40_91 VPWR VGND sg13g2_decap_8
XFILLER_6_242 VPWR VGND sg13g2_decap_8
XFILLER_27_4 VPWR VGND sg13g2_decap_8
XFILLER_37_168 VPWR VGND sg13g2_decap_8
XFILLER_33_352 VPWR VGND sg13g2_fill_1
XFILLER_1_63 VPWR VGND sg13g2_decap_8
XFILLER_25_319 VPWR VGND sg13g2_decap_8
XFILLER_20_39 VPWR VGND sg13g2_decap_8
XFILLER_45_14 VPWR VGND sg13g2_decap_8
XFILLER_43_105 VPWR VGND sg13g2_decap_8
XFILLER_16_319 VPWR VGND sg13g2_decap_8
XFILLER_28_168 VPWR VGND sg13g2_decap_8
XFILLER_51_182 VPWR VGND sg13g2_decap_8
XFILLER_3_256 VPWR VGND sg13g2_decap_8
XFILLER_19_102 VPWR VGND sg13g2_decap_8
XFILLER_34_105 VPWR VGND sg13g2_decap_8
XFILLER_19_81 VPWR VGND sg13g2_decap_8
XFILLER_19_179 VPWR VGND sg13g2_decap_8
XFILLER_42_182 VPWR VGND sg13g2_decap_8
XFILLER_35_91 VPWR VGND sg13g2_decap_8
XFILLER_18_0 VPWR VGND sg13g2_decap_8
Xheichips25_ethernet_19 VPWR VGND uio_oe[2] sg13g2_tielo
XFILLER_40_119 VPWR VGND sg13g2_decap_8
XFILLER_33_182 VPWR VGND sg13g2_decap_8
XFILLER_15_39 VPWR VGND sg13g2_decap_8
XFILLER_21_333 VPWR VGND sg13g2_decap_8
XFILLER_25_116 VPWR VGND sg13g2_decap_8
XFILLER_31_49 VPWR VGND sg13g2_decap_8
XFILLER_0_259 VPWR VGND sg13g2_decap_8
XFILLER_16_116 VPWR VGND sg13g2_decap_8
XFILLER_31_119 VPWR VGND sg13g2_decap_8
XFILLER_8_315 VPWR VGND sg13g2_decap_8
XFILLER_12_333 VPWR VGND sg13g2_decap_8
XFILLER_24_193 VPWR VGND sg13g2_decap_8
XFILLER_21_60 VPWR VGND sg13g2_decap_8
XFILLER_47_252 VPWR VGND sg13g2_decap_8
XFILLER_30_130 VPWR VGND sg13g2_decap_8
XFILLER_15_193 VPWR VGND sg13g2_decap_8
XFILLER_7_95 VPWR VGND sg13g2_decap_8
XFILLER_38_252 VPWR VGND sg13g2_decap_8
XFILLER_21_130 VPWR VGND sg13g2_decap_8
XFILLER_29_263 VPWR VGND sg13g2_decap_8
XFILLER_44_266 VPWR VGND sg13g2_decap_8
XFILLER_16_60 VPWR VGND sg13g2_decap_8
XFILLER_32_70 VPWR VGND sg13g2_decap_8
XFILLER_8_112 VPWR VGND sg13g2_decap_8
XFILLER_8_189 VPWR VGND sg13g2_decap_8
XFILLER_12_130 VPWR VGND sg13g2_decap_8
XFILLER_4_351 VPWR VGND sg13g2_fill_2
XFILLER_4_340 VPWR VGND sg13g2_decap_8
XFILLER_50_203 VPWR VGND sg13g2_decap_8
XFILLER_35_266 VPWR VGND sg13g2_decap_8
XFILLER_12_18 VPWR VGND sg13g2_decap_8
XFILLER_41_203 VPWR VGND sg13g2_decap_8
XFILLER_26_200 VPWR VGND sg13g2_decap_8
XFILLER_26_277 VPWR VGND sg13g2_decap_8
XFILLER_5_137 VPWR VGND sg13g2_decap_8
Xheichips25_ethernet_2 VPWR VGND uio_out[1] sg13g2_tielo
XFILLER_1_343 VPWR VGND sg13g2_decap_8
XFILLER_49_336 VPWR VGND sg13g2_decap_8
XFILLER_17_200 VPWR VGND sg13g2_decap_8
XFILLER_27_81 VPWR VGND sg13g2_decap_8
XFILLER_43_91 VPWR VGND sg13g2_decap_8
XFILLER_40_280 VPWR VGND sg13g2_decap_8
XFILLER_32_203 VPWR VGND sg13g2_decap_8
XFILLER_17_277 VPWR VGND sg13g2_decap_8
XFILLER_4_74 VPWR VGND sg13g2_decap_8
XFILLER_23_214 VPWR VGND sg13g2_decap_8
XFILLER_31_280 VPWR VGND sg13g2_decap_8
XFILLER_23_39 VPWR VGND sg13g2_decap_8
XFILLER_48_14 VPWR VGND sg13g2_decap_8
XFILLER_14_214 VPWR VGND sg13g2_decap_8
XFILLER_22_291 VPWR VGND sg13g2_decap_8
XFILLER_49_133 VPWR VGND sg13g2_decap_8
XFILLER_1_140 VPWR VGND sg13g2_decap_8
XFILLER_45_350 VPWR VGND sg13g2_fill_2
XFILLER_38_91 VPWR VGND sg13g2_decap_8
XFILLER_9_284 VPWR VGND sg13g2_decap_8
XFILLER_13_291 VPWR VGND sg13g2_decap_8
XFILLER_20_228 VPWR VGND sg13g2_decap_8
XFILLER_48_0 VPWR VGND sg13g2_decap_8
XFILLER_18_28 VPWR VGND sg13g2_decap_8
XFILLER_36_350 VPWR VGND sg13g2_fill_2
XFILLER_34_49 VPWR VGND sg13g2_decap_8
XFILLER_11_228 VPWR VGND sg13g2_decap_8
XFILLER_46_147 VPWR VGND sg13g2_decap_8
XFILLER_24_60 VPWR VGND sg13g2_decap_8
XFILLER_41_7 VPWR VGND sg13g2_decap_8
XFILLER_40_70 VPWR VGND sg13g2_decap_8
XFILLER_6_298 VPWR VGND sg13g2_decap_8
XFILLER_6_221 VPWR VGND sg13g2_decap_8
XFILLER_37_147 VPWR VGND sg13g2_decap_8
XFILLER_1_42 VPWR VGND sg13g2_decap_8
XFILLER_18_350 VPWR VGND sg13g2_fill_2
XFILLER_20_18 VPWR VGND sg13g2_decap_8
XFILLER_28_147 VPWR VGND sg13g2_decap_8
XFILLER_51_161 VPWR VGND sg13g2_decap_8
XFILLER_3_235 VPWR VGND sg13g2_decap_8
XFILLER_10_95 VPWR VGND sg13g2_decap_8
XFILLER_19_60 VPWR VGND sg13g2_decap_8
XFILLER_42_161 VPWR VGND sg13g2_decap_8
XFILLER_35_70 VPWR VGND sg13g2_decap_8
XFILLER_30_312 VPWR VGND sg13g2_decap_8
XFILLER_19_158 VPWR VGND sg13g2_decap_8
XFILLER_51_91 VPWR VGND sg13g2_decap_8
XFILLER_33_161 VPWR VGND sg13g2_decap_8
XFILLER_15_18 VPWR VGND sg13g2_decap_8
XFILLER_21_312 VPWR VGND sg13g2_decap_8
XFILLER_31_28 VPWR VGND sg13g2_decap_8
XFILLER_0_238 VPWR VGND sg13g2_decap_8
XFILLER_12_312 VPWR VGND sg13g2_decap_8
XFILLER_24_172 VPWR VGND sg13g2_decap_8
XFILLER_47_231 VPWR VGND sg13g2_decap_8
XFILLER_46_91 VPWR VGND sg13g2_decap_8
XFILLER_15_172 VPWR VGND sg13g2_decap_8
XFILLER_22_109 VPWR VGND sg13g2_decap_8
XFILLER_30_186 VPWR VGND sg13g2_decap_8
XFILLER_7_74 VPWR VGND sg13g2_decap_8
XFILLER_38_231 VPWR VGND sg13g2_decap_8
XFILLER_13_109 VPWR VGND sg13g2_decap_8
XFILLER_26_39 VPWR VGND sg13g2_decap_8
XFILLER_42_49 VPWR VGND sg13g2_decap_8
XFILLER_5_319 VPWR VGND sg13g2_decap_8
XFILLER_21_186 VPWR VGND sg13g2_decap_8
XFILLER_29_242 VPWR VGND sg13g2_decap_8
XFILLER_44_245 VPWR VGND sg13g2_decap_8
XFILLER_8_168 VPWR VGND sg13g2_decap_8
XFILLER_12_186 VPWR VGND sg13g2_decap_8
XFILLER_35_245 VPWR VGND sg13g2_decap_8
XFILLER_50_259 VPWR VGND sg13g2_decap_8
XFILLER_37_49 VPWR VGND sg13g2_decap_8
XFILLER_41_259 VPWR VGND sg13g2_decap_8
Xheichips25_ethernet_3 VPWR VGND uio_out[2] sg13g2_tielo
XFILLER_26_256 VPWR VGND sg13g2_decap_8
XFILLER_5_116 VPWR VGND sg13g2_decap_8
XFILLER_49_315 VPWR VGND sg13g2_decap_8
XFILLER_1_322 VPWR VGND sg13g2_decap_8
XFILLER_17_256 VPWR VGND sg13g2_decap_8
XFILLER_27_60 VPWR VGND sg13g2_decap_8
XFILLER_43_70 VPWR VGND sg13g2_decap_8
XFILLER_32_259 VPWR VGND sg13g2_decap_8
XFILLER_4_193 VPWR VGND sg13g2_decap_8
XFILLER_4_53 VPWR VGND sg13g2_decap_8
XFILLER_23_18 VPWR VGND sg13g2_decap_8
XFILLER_2_119 VPWR VGND sg13g2_decap_8
XFILLER_46_329 VPWR VGND sg13g2_decap_8
XFILLER_22_270 VPWR VGND sg13g2_decap_8
XFILLER_8_0 VPWR VGND sg13g2_decap_8
XFILLER_13_95 VPWR VGND sg13g2_decap_8
XFILLER_49_189 VPWR VGND sg13g2_decap_8
XFILLER_49_112 VPWR VGND sg13g2_decap_8