*SPEF "ieee 1481-1999"
*DESIGN "heichips25_ethernet"
*DATE "10:01:37 Tuesday March 17, 2026"
*VENDOR "The OpenROAD Project"
*PROGRAM "OpenROAD"
*VERSION "dfc4f595dfb2e1c346492ff1f0274abb28725acf"
*DESIGN_FLOW "NAME_SCOPE LOCAL" "PIN_CAP NONE"
*DIVIDER /
*DELIMITER :
*BUS_DELIMITER []
*T_UNIT 1 NS
*C_UNIT 1 PF
*R_UNIT 1 OHM
*L_UNIT 1 HENRY

*NAME_MAP
*3 clk
*4 ena
*5 ethernet_dn
*6 ethernet_dp
*7 rst_n
*8 ui_in[0]
*9 ui_in[1]
*10 ui_in[2]
*11 ui_in[3]
*12 ui_in[4]
*13 ui_in[5]
*14 ui_in[6]
*15 ui_in[7]
*16 uio_in[0]
*17 uio_in[1]
*18 uio_in[2]
*19 uio_in[3]
*20 uio_in[4]
*21 uio_in[5]
*22 uio_in[6]
*23 uio_in[7]
*24 net17
*25 net18
*26 net19
*27 net20
*28 net21
*29 net22
*30 net23
*31 net24
*32 net
*33 net2
*34 net3
*35 net4
*36 net5
*37 net6
*38 net7
*39 net8
*40 net9
*41 net10
*42 net11
*43 net12
*44 net13
*45 net14
*46 net15
*47 net16
*48 in_n
*49 net1
*50 FILLER_0_0
*51 FILLER_0_105
*52 FILLER_0_112
*53 FILLER_0_119
*54 FILLER_0_126
*55 FILLER_0_133
*56 FILLER_0_14
*57 FILLER_0_140
*58 FILLER_0_147
*59 FILLER_0_154
*60 FILLER_0_161
*61 FILLER_0_168
*62 FILLER_0_175
*63 FILLER_0_182
*64 FILLER_0_189
*65 FILLER_0_196
*66 FILLER_0_203
*67 FILLER_0_21
*68 FILLER_0_210
*69 FILLER_0_217
*70 FILLER_0_224
*71 FILLER_0_231
*72 FILLER_0_238
*73 FILLER_0_245
*74 FILLER_0_252
*75 FILLER_0_259
*76 FILLER_0_266
*77 FILLER_0_273
*78 FILLER_0_28
*79 FILLER_0_280
*80 FILLER_0_287
*81 FILLER_0_294
*82 FILLER_0_301
*83 FILLER_0_308
*84 FILLER_0_315
*85 FILLER_0_322
*86 FILLER_0_329
*87 FILLER_0_336
*88 FILLER_0_343
*89 FILLER_0_35
*90 FILLER_0_350
*91 FILLER_0_352
*92 FILLER_0_42
*93 FILLER_0_49
*94 FILLER_0_56
*95 FILLER_0_63
*96 FILLER_0_7
*97 FILLER_0_70
*98 FILLER_0_77
*99 FILLER_0_84
*100 FILLER_0_91
*101 FILLER_0_98
*102 FILLER_10_102
*103 FILLER_10_109
*104 FILLER_10_11
*105 FILLER_10_116
*106 FILLER_10_123
*107 FILLER_10_130
*108 FILLER_10_137
*109 FILLER_10_144
*110 FILLER_10_151
*111 FILLER_10_158
*112 FILLER_10_165
*113 FILLER_10_172
*114 FILLER_10_179
*115 FILLER_10_18
*116 FILLER_10_186
*117 FILLER_10_193
*118 FILLER_10_200
*119 FILLER_10_207
*120 FILLER_10_214
*121 FILLER_10_221
*122 FILLER_10_228
*123 FILLER_10_235
*124 FILLER_10_242
*125 FILLER_10_249
*126 FILLER_10_25
*127 FILLER_10_256
*128 FILLER_10_263
*129 FILLER_10_270
*130 FILLER_10_277
*131 FILLER_10_284
*132 FILLER_10_291
*133 FILLER_10_298
*134 FILLER_10_305
*135 FILLER_10_312
*136 FILLER_10_319
*137 FILLER_10_32
*138 FILLER_10_326
*139 FILLER_10_333
*140 FILLER_10_340
*141 FILLER_10_347
*142 FILLER_10_351
*143 FILLER_10_39
*144 FILLER_10_4
*145 FILLER_10_46
*146 FILLER_10_53
*147 FILLER_10_60
*148 FILLER_10_67
*149 FILLER_10_74
*150 FILLER_10_81
*151 FILLER_10_88
*152 FILLER_10_95
*153 FILLER_11_102
*154 FILLER_11_109
*155 FILLER_11_11
*156 FILLER_11_116
*157 FILLER_11_123
*158 FILLER_11_130
*159 FILLER_11_137
*160 FILLER_11_144
*161 FILLER_11_151
*162 FILLER_11_158
*163 FILLER_11_165
*164 FILLER_11_172
*165 FILLER_11_179
*166 FILLER_11_18
*167 FILLER_11_186
*168 FILLER_11_193
*169 FILLER_11_200
*170 FILLER_11_207
*171 FILLER_11_214
*172 FILLER_11_221
*173 FILLER_11_228
*174 FILLER_11_235
*175 FILLER_11_242
*176 FILLER_11_249
*177 FILLER_11_25
*178 FILLER_11_256
*179 FILLER_11_263
*180 FILLER_11_270
*181 FILLER_11_277
*182 FILLER_11_284
*183 FILLER_11_291
*184 FILLER_11_298
*185 FILLER_11_305
*186 FILLER_11_312
*187 FILLER_11_319
*188 FILLER_11_32
*189 FILLER_11_326
*190 FILLER_11_333
*191 FILLER_11_340
*192 FILLER_11_347
*193 FILLER_11_351
*194 FILLER_11_39
*195 FILLER_11_4
*196 FILLER_11_46
*197 FILLER_11_53
*198 FILLER_11_60
*199 FILLER_11_67
*200 FILLER_11_74
*201 FILLER_11_81
*202 FILLER_11_88
*203 FILLER_11_95
*204 FILLER_12_102
*205 FILLER_12_109
*206 FILLER_12_11
*207 FILLER_12_116
*208 FILLER_12_123
*209 FILLER_12_130
*210 FILLER_12_137
*211 FILLER_12_144
*212 FILLER_12_151
*213 FILLER_12_158
*214 FILLER_12_165
*215 FILLER_12_172
*216 FILLER_12_179
*217 FILLER_12_18
*218 FILLER_12_186
*219 FILLER_12_193
*220 FILLER_12_200
*221 FILLER_12_207
*222 FILLER_12_214
*223 FILLER_12_221
*224 FILLER_12_228
*225 FILLER_12_235
*226 FILLER_12_242
*227 FILLER_12_249
*228 FILLER_12_25
*229 FILLER_12_256
*230 FILLER_12_263
*231 FILLER_12_270
*232 FILLER_12_277
*233 FILLER_12_284
*234 FILLER_12_291
*235 FILLER_12_298
*236 FILLER_12_305
*237 FILLER_12_312
*238 FILLER_12_319
*239 FILLER_12_32
*240 FILLER_12_326
*241 FILLER_12_333
*242 FILLER_12_340
*243 FILLER_12_347
*244 FILLER_12_351
*245 FILLER_12_39
*246 FILLER_12_4
*247 FILLER_12_46
*248 FILLER_12_53
*249 FILLER_12_60
*250 FILLER_12_67
*251 FILLER_12_74
*252 FILLER_12_81
*253 FILLER_12_88
*254 FILLER_12_95
*255 FILLER_13_102
*256 FILLER_13_109
*257 FILLER_13_11
*258 FILLER_13_116
*259 FILLER_13_123
*260 FILLER_13_130
*261 FILLER_13_137
*262 FILLER_13_144
*263 FILLER_13_151
*264 FILLER_13_158
*265 FILLER_13_165
*266 FILLER_13_172
*267 FILLER_13_179
*268 FILLER_13_18
*269 FILLER_13_186
*270 FILLER_13_193
*271 FILLER_13_200
*272 FILLER_13_207
*273 FILLER_13_214
*274 FILLER_13_221
*275 FILLER_13_228
*276 FILLER_13_235
*277 FILLER_13_242
*278 FILLER_13_249
*279 FILLER_13_25
*280 FILLER_13_256
*281 FILLER_13_263
*282 FILLER_13_270
*283 FILLER_13_277
*284 FILLER_13_284
*285 FILLER_13_291
*286 FILLER_13_298
*287 FILLER_13_305
*288 FILLER_13_312
*289 FILLER_13_319
*290 FILLER_13_32
*291 FILLER_13_326
*292 FILLER_13_333
*293 FILLER_13_340
*294 FILLER_13_347
*295 FILLER_13_351
*296 FILLER_13_39
*297 FILLER_13_4
*298 FILLER_13_46
*299 FILLER_13_53
*300 FILLER_13_60
*301 FILLER_13_67
*302 FILLER_13_74
*303 FILLER_13_81
*304 FILLER_13_88
*305 FILLER_13_95
*306 FILLER_14_102
*307 FILLER_14_109
*308 FILLER_14_11
*309 FILLER_14_116
*310 FILLER_14_123
*311 FILLER_14_130
*312 FILLER_14_137
*313 FILLER_14_144
*314 FILLER_14_151
*315 FILLER_14_158
*316 FILLER_14_165
*317 FILLER_14_172
*318 FILLER_14_179
*319 FILLER_14_18
*320 FILLER_14_186
*321 FILLER_14_193
*322 FILLER_14_200
*323 FILLER_14_207
*324 FILLER_14_214
*325 FILLER_14_221
*326 FILLER_14_228
*327 FILLER_14_235
*328 FILLER_14_242
*329 FILLER_14_249
*330 FILLER_14_25
*331 FILLER_14_256
*332 FILLER_14_263
*333 FILLER_14_270
*334 FILLER_14_277
*335 FILLER_14_284
*336 FILLER_14_291
*337 FILLER_14_298
*338 FILLER_14_305
*339 FILLER_14_312
*340 FILLER_14_319
*341 FILLER_14_32
*342 FILLER_14_326
*343 FILLER_14_333
*344 FILLER_14_340
*345 FILLER_14_347
*346 FILLER_14_351
*347 FILLER_14_39
*348 FILLER_14_4
*349 FILLER_14_46
*350 FILLER_14_53
*351 FILLER_14_60
*352 FILLER_14_67
*353 FILLER_14_74
*354 FILLER_14_81
*355 FILLER_14_88
*356 FILLER_14_95
*357 FILLER_15_102
*358 FILLER_15_109
*359 FILLER_15_11
*360 FILLER_15_116
*361 FILLER_15_123
*362 FILLER_15_130
*363 FILLER_15_137
*364 FILLER_15_144
*365 FILLER_15_151
*366 FILLER_15_158
*367 FILLER_15_165
*368 FILLER_15_172
*369 FILLER_15_179
*370 FILLER_15_18
*371 FILLER_15_186
*372 FILLER_15_193
*373 FILLER_15_200
*374 FILLER_15_207
*375 FILLER_15_214
*376 FILLER_15_221
*377 FILLER_15_228
*378 FILLER_15_235
*379 FILLER_15_242
*380 FILLER_15_249
*381 FILLER_15_25
*382 FILLER_15_256
*383 FILLER_15_263
*384 FILLER_15_270
*385 FILLER_15_277
*386 FILLER_15_284
*387 FILLER_15_291
*388 FILLER_15_298
*389 FILLER_15_305
*390 FILLER_15_312
*391 FILLER_15_319
*392 FILLER_15_32
*393 FILLER_15_326
*394 FILLER_15_333
*395 FILLER_15_340
*396 FILLER_15_347
*397 FILLER_15_351
*398 FILLER_15_39
*399 FILLER_15_4
*400 FILLER_15_46
*401 FILLER_15_53
*402 FILLER_15_60
*403 FILLER_15_67
*404 FILLER_15_74
*405 FILLER_15_81
*406 FILLER_15_88
*407 FILLER_15_95
*408 FILLER_16_102
*409 FILLER_16_109
*410 FILLER_16_11
*411 FILLER_16_116
*412 FILLER_16_123
*413 FILLER_16_130
*414 FILLER_16_137
*415 FILLER_16_144
*416 FILLER_16_151
*417 FILLER_16_158
*418 FILLER_16_165
*419 FILLER_16_172
*420 FILLER_16_179
*421 FILLER_16_18
*422 FILLER_16_186
*423 FILLER_16_193
*424 FILLER_16_200
*425 FILLER_16_207
*426 FILLER_16_214
*427 FILLER_16_221
*428 FILLER_16_228
*429 FILLER_16_235
*430 FILLER_16_242
*431 FILLER_16_249
*432 FILLER_16_25
*433 FILLER_16_256
*434 FILLER_16_263
*435 FILLER_16_270
*436 FILLER_16_277
*437 FILLER_16_284
*438 FILLER_16_291
*439 FILLER_16_298
*440 FILLER_16_305
*441 FILLER_16_312
*442 FILLER_16_319
*443 FILLER_16_32
*444 FILLER_16_326
*445 FILLER_16_333
*446 FILLER_16_340
*447 FILLER_16_347
*448 FILLER_16_351
*449 FILLER_16_39
*450 FILLER_16_4
*451 FILLER_16_46
*452 FILLER_16_53
*453 FILLER_16_60
*454 FILLER_16_67
*455 FILLER_16_74
*456 FILLER_16_81
*457 FILLER_16_88
*458 FILLER_16_95
*459 FILLER_17_102
*460 FILLER_17_109
*461 FILLER_17_11
*462 FILLER_17_116
*463 FILLER_17_123
*464 FILLER_17_130
*465 FILLER_17_137
*466 FILLER_17_144
*467 FILLER_17_151
*468 FILLER_17_158
*469 FILLER_17_165
*470 FILLER_17_172
*471 FILLER_17_179
*472 FILLER_17_18
*473 FILLER_17_186
*474 FILLER_17_193
*475 FILLER_17_200
*476 FILLER_17_207
*477 FILLER_17_214
*478 FILLER_17_221
*479 FILLER_17_228
*480 FILLER_17_235
*481 FILLER_17_242
*482 FILLER_17_249
*483 FILLER_17_25
*484 FILLER_17_256
*485 FILLER_17_263
*486 FILLER_17_270
*487 FILLER_17_277
*488 FILLER_17_284
*489 FILLER_17_291
*490 FILLER_17_298
*491 FILLER_17_305
*492 FILLER_17_312
*493 FILLER_17_319
*494 FILLER_17_32
*495 FILLER_17_326
*496 FILLER_17_333
*497 FILLER_17_340
*498 FILLER_17_347
*499 FILLER_17_351
*500 FILLER_17_39
*501 FILLER_17_4
*502 FILLER_17_46
*503 FILLER_17_53
*504 FILLER_17_60
*505 FILLER_17_67
*506 FILLER_17_74
*507 FILLER_17_81
*508 FILLER_17_88
*509 FILLER_17_95
*510 FILLER_18_0
*511 FILLER_18_105
*512 FILLER_18_112
*513 FILLER_18_119
*514 FILLER_18_126
*515 FILLER_18_133
*516 FILLER_18_14
*517 FILLER_18_140
*518 FILLER_18_147
*519 FILLER_18_154
*520 FILLER_18_161
*521 FILLER_18_168
*522 FILLER_18_175
*523 FILLER_18_182
*524 FILLER_18_189
*525 FILLER_18_196
*526 FILLER_18_203
*527 FILLER_18_21
*528 FILLER_18_210
*529 FILLER_18_217
*530 FILLER_18_224
*531 FILLER_18_231
*532 FILLER_18_238
*533 FILLER_18_245
*534 FILLER_18_252
*535 FILLER_18_259
*536 FILLER_18_266
*537 FILLER_18_273
*538 FILLER_18_28
*539 FILLER_18_280
*540 FILLER_18_287
*541 FILLER_18_294
*542 FILLER_18_301
*543 FILLER_18_308
*544 FILLER_18_315
*545 FILLER_18_322
*546 FILLER_18_329
*547 FILLER_18_336
*548 FILLER_18_343
*549 FILLER_18_35
*550 FILLER_18_350
*551 FILLER_18_352
*552 FILLER_18_42
*553 FILLER_18_49
*554 FILLER_18_56
*555 FILLER_18_63
*556 FILLER_18_7
*557 FILLER_18_70
*558 FILLER_18_77
*559 FILLER_18_84
*560 FILLER_18_91
*561 FILLER_18_98
*562 FILLER_19_102
*563 FILLER_19_109
*564 FILLER_19_11
*565 FILLER_19_116
*566 FILLER_19_123
*567 FILLER_19_130
*568 FILLER_19_137
*569 FILLER_19_144
*570 FILLER_19_151
*571 FILLER_19_158
*572 FILLER_19_165
*573 FILLER_19_172
*574 FILLER_19_179
*575 FILLER_19_18
*576 FILLER_19_186
*577 FILLER_19_193
*578 FILLER_19_200
*579 FILLER_19_207
*580 FILLER_19_214
*581 FILLER_19_221
*582 FILLER_19_228
*583 FILLER_19_235
*584 FILLER_19_242
*585 FILLER_19_249
*586 FILLER_19_25
*587 FILLER_19_256
*588 FILLER_19_263
*589 FILLER_19_270
*590 FILLER_19_277
*591 FILLER_19_284
*592 FILLER_19_291
*593 FILLER_19_298
*594 FILLER_19_305
*595 FILLER_19_312
*596 FILLER_19_319
*597 FILLER_19_32
*598 FILLER_19_326
*599 FILLER_19_333
*600 FILLER_19_340
*601 FILLER_19_347
*602 FILLER_19_351
*603 FILLER_19_39
*604 FILLER_19_4
*605 FILLER_19_46
*606 FILLER_19_53
*607 FILLER_19_60
*608 FILLER_19_67
*609 FILLER_19_74
*610 FILLER_19_81
*611 FILLER_19_88
*612 FILLER_19_95
*613 FILLER_1_0
*614 FILLER_1_105
*615 FILLER_1_112
*616 FILLER_1_119
*617 FILLER_1_126
*618 FILLER_1_133
*619 FILLER_1_14
*620 FILLER_1_140
*621 FILLER_1_147
*622 FILLER_1_154
*623 FILLER_1_161
*624 FILLER_1_168
*625 FILLER_1_175
*626 FILLER_1_182
*627 FILLER_1_189
*628 FILLER_1_196
*629 FILLER_1_203
*630 FILLER_1_21
*631 FILLER_1_210
*632 FILLER_1_217
*633 FILLER_1_224
*634 FILLER_1_231
*635 FILLER_1_238
*636 FILLER_1_245
*637 FILLER_1_252
*638 FILLER_1_259
*639 FILLER_1_266
*640 FILLER_1_273
*641 FILLER_1_28
*642 FILLER_1_280
*643 FILLER_1_287
*644 FILLER_1_294
*645 FILLER_1_301
*646 FILLER_1_308
*647 FILLER_1_315
*648 FILLER_1_322
*649 FILLER_1_329
*650 FILLER_1_336
*651 FILLER_1_343
*652 FILLER_1_35
*653 FILLER_1_350
*654 FILLER_1_352
*655 FILLER_1_42
*656 FILLER_1_49
*657 FILLER_1_56
*658 FILLER_1_63
*659 FILLER_1_7
*660 FILLER_1_70
*661 FILLER_1_77
*662 FILLER_1_84
*663 FILLER_1_91
*664 FILLER_1_98
*665 FILLER_20_102
*666 FILLER_20_109
*667 FILLER_20_11
*668 FILLER_20_116
*669 FILLER_20_123
*670 FILLER_20_130
*671 FILLER_20_137
*672 FILLER_20_144
*673 FILLER_20_151
*674 FILLER_20_158
*675 FILLER_20_165
*676 FILLER_20_172
*677 FILLER_20_179
*678 FILLER_20_18
*679 FILLER_20_186
*680 FILLER_20_193
*681 FILLER_20_200
*682 FILLER_20_207
*683 FILLER_20_214
*684 FILLER_20_221
*685 FILLER_20_228
*686 FILLER_20_235
*687 FILLER_20_242
*688 FILLER_20_249
*689 FILLER_20_25
*690 FILLER_20_256
*691 FILLER_20_263
*692 FILLER_20_270
*693 FILLER_20_277
*694 FILLER_20_284
*695 FILLER_20_291
*696 FILLER_20_298
*697 FILLER_20_305
*698 FILLER_20_312
*699 FILLER_20_319
*700 FILLER_20_32
*701 FILLER_20_326
*702 FILLER_20_333
*703 FILLER_20_340
*704 FILLER_20_347
*705 FILLER_20_351
*706 FILLER_20_39
*707 FILLER_20_4
*708 FILLER_20_46
*709 FILLER_20_53
*710 FILLER_20_60
*711 FILLER_20_67
*712 FILLER_20_74
*713 FILLER_20_81
*714 FILLER_20_88
*715 FILLER_20_95
*716 FILLER_21_102
*717 FILLER_21_109
*718 FILLER_21_11
*719 FILLER_21_116
*720 FILLER_21_123
*721 FILLER_21_130
*722 FILLER_21_137
*723 FILLER_21_144
*724 FILLER_21_151
*725 FILLER_21_158
*726 FILLER_21_165
*727 FILLER_21_172
*728 FILLER_21_179
*729 FILLER_21_18
*730 FILLER_21_186
*731 FILLER_21_193
*732 FILLER_21_200
*733 FILLER_21_207
*734 FILLER_21_214
*735 FILLER_21_221
*736 FILLER_21_228
*737 FILLER_21_235
*738 FILLER_21_242
*739 FILLER_21_249
*740 FILLER_21_25
*741 FILLER_21_256
*742 FILLER_21_263
*743 FILLER_21_270
*744 FILLER_21_277
*745 FILLER_21_284
*746 FILLER_21_291
*747 FILLER_21_298
*748 FILLER_21_305
*749 FILLER_21_312
*750 FILLER_21_319
*751 FILLER_21_32
*752 FILLER_21_326
*753 FILLER_21_333
*754 FILLER_21_340
*755 FILLER_21_347
*756 FILLER_21_351
*757 FILLER_21_39
*758 FILLER_21_4
*759 FILLER_21_46
*760 FILLER_21_53
*761 FILLER_21_60
*762 FILLER_21_67
*763 FILLER_21_74
*764 FILLER_21_81
*765 FILLER_21_88
*766 FILLER_21_95
*767 FILLER_22_102
*768 FILLER_22_109
*769 FILLER_22_11
*770 FILLER_22_116
*771 FILLER_22_123
*772 FILLER_22_130
*773 FILLER_22_137
*774 FILLER_22_144
*775 FILLER_22_151
*776 FILLER_22_158
*777 FILLER_22_165
*778 FILLER_22_172
*779 FILLER_22_179
*780 FILLER_22_18
*781 FILLER_22_186
*782 FILLER_22_193
*783 FILLER_22_200
*784 FILLER_22_207
*785 FILLER_22_214
*786 FILLER_22_221
*787 FILLER_22_228
*788 FILLER_22_235
*789 FILLER_22_242
*790 FILLER_22_249
*791 FILLER_22_25
*792 FILLER_22_256
*793 FILLER_22_263
*794 FILLER_22_270
*795 FILLER_22_277
*796 FILLER_22_284
*797 FILLER_22_291
*798 FILLER_22_298
*799 FILLER_22_305
*800 FILLER_22_312
*801 FILLER_22_319
*802 FILLER_22_32
*803 FILLER_22_326
*804 FILLER_22_333
*805 FILLER_22_340
*806 FILLER_22_347
*807 FILLER_22_351
*808 FILLER_22_39
*809 FILLER_22_4
*810 FILLER_22_46
*811 FILLER_22_53
*812 FILLER_22_60
*813 FILLER_22_67
*814 FILLER_22_74
*815 FILLER_22_81
*816 FILLER_22_88
*817 FILLER_22_95
*818 FILLER_23_102
*819 FILLER_23_109
*820 FILLER_23_11
*821 FILLER_23_116
*822 FILLER_23_123
*823 FILLER_23_130
*824 FILLER_23_137
*825 FILLER_23_144
*826 FILLER_23_151
*827 FILLER_23_158
*828 FILLER_23_165
*829 FILLER_23_172
*830 FILLER_23_179
*831 FILLER_23_18
*832 FILLER_23_186
*833 FILLER_23_193
*834 FILLER_23_200
*835 FILLER_23_207
*836 FILLER_23_214
*837 FILLER_23_221
*838 FILLER_23_228
*839 FILLER_23_235
*840 FILLER_23_242
*841 FILLER_23_249
*842 FILLER_23_25
*843 FILLER_23_256
*844 FILLER_23_263
*845 FILLER_23_270
*846 FILLER_23_277
*847 FILLER_23_284
*848 FILLER_23_291
*849 FILLER_23_298
*850 FILLER_23_305
*851 FILLER_23_312
*852 FILLER_23_319
*853 FILLER_23_32
*854 FILLER_23_326
*855 FILLER_23_333
*856 FILLER_23_340
*857 FILLER_23_347
*858 FILLER_23_351
*859 FILLER_23_39
*860 FILLER_23_4
*861 FILLER_23_46
*862 FILLER_23_53
*863 FILLER_23_60
*864 FILLER_23_67
*865 FILLER_23_74
*866 FILLER_23_81
*867 FILLER_23_88
*868 FILLER_23_95
*869 FILLER_24_102
*870 FILLER_24_109
*871 FILLER_24_11
*872 FILLER_24_116
*873 FILLER_24_123
*874 FILLER_24_130
*875 FILLER_24_137
*876 FILLER_24_144
*877 FILLER_24_151
*878 FILLER_24_158
*879 FILLER_24_165
*880 FILLER_24_172
*881 FILLER_24_179
*882 FILLER_24_18
*883 FILLER_24_186
*884 FILLER_24_193
*885 FILLER_24_200
*886 FILLER_24_207
*887 FILLER_24_214
*888 FILLER_24_221
*889 FILLER_24_228
*890 FILLER_24_235
*891 FILLER_24_242
*892 FILLER_24_249
*893 FILLER_24_25
*894 FILLER_24_256
*895 FILLER_24_263
*896 FILLER_24_270
*897 FILLER_24_277
*898 FILLER_24_284
*899 FILLER_24_291
*900 FILLER_24_298
*901 FILLER_24_305
*902 FILLER_24_312
*903 FILLER_24_319
*904 FILLER_24_32
*905 FILLER_24_326
*906 FILLER_24_333
*907 FILLER_24_340
*908 FILLER_24_347
*909 FILLER_24_351
*910 FILLER_24_39
*911 FILLER_24_4
*912 FILLER_24_46
*913 FILLER_24_53
*914 FILLER_24_60
*915 FILLER_24_67
*916 FILLER_24_74
*917 FILLER_24_81
*918 FILLER_24_88
*919 FILLER_24_95
*920 FILLER_25_102
*921 FILLER_25_109
*922 FILLER_25_11
*923 FILLER_25_116
*924 FILLER_25_123
*925 FILLER_25_130
*926 FILLER_25_137
*927 FILLER_25_144
*928 FILLER_25_151
*929 FILLER_25_158
*930 FILLER_25_165
*931 FILLER_25_172
*932 FILLER_25_179
*933 FILLER_25_18
*934 FILLER_25_186
*935 FILLER_25_193
*936 FILLER_25_200
*937 FILLER_25_207
*938 FILLER_25_214
*939 FILLER_25_221
*940 FILLER_25_228
*941 FILLER_25_235
*942 FILLER_25_242
*943 FILLER_25_249
*944 FILLER_25_25
*945 FILLER_25_256
*946 FILLER_25_263
*947 FILLER_25_270
*948 FILLER_25_277
*949 FILLER_25_284
*950 FILLER_25_291
*951 FILLER_25_298
*952 FILLER_25_305
*953 FILLER_25_312
*954 FILLER_25_319
*955 FILLER_25_32
*956 FILLER_25_326
*957 FILLER_25_333
*958 FILLER_25_340
*959 FILLER_25_347
*960 FILLER_25_351
*961 FILLER_25_39
*962 FILLER_25_4
*963 FILLER_25_46
*964 FILLER_25_53
*965 FILLER_25_60
*966 FILLER_25_67
*967 FILLER_25_74
*968 FILLER_25_81
*969 FILLER_25_88
*970 FILLER_25_95
*971 FILLER_26_102
*972 FILLER_26_109
*973 FILLER_26_11
*974 FILLER_26_116
*975 FILLER_26_123
*976 FILLER_26_130
*977 FILLER_26_137
*978 FILLER_26_144
*979 FILLER_26_151
*980 FILLER_26_158
*981 FILLER_26_165
*982 FILLER_26_172
*983 FILLER_26_179
*984 FILLER_26_18
*985 FILLER_26_186
*986 FILLER_26_193
*987 FILLER_26_200
*988 FILLER_26_207
*989 FILLER_26_214
*990 FILLER_26_221
*991 FILLER_26_228
*992 FILLER_26_235
*993 FILLER_26_242
*994 FILLER_26_249
*995 FILLER_26_25
*996 FILLER_26_256
*997 FILLER_26_263
*998 FILLER_26_270
*999 FILLER_26_277
*1000 FILLER_26_284
*1001 FILLER_26_291
*1002 FILLER_26_298
*1003 FILLER_26_305
*1004 FILLER_26_312
*1005 FILLER_26_319
*1006 FILLER_26_32
*1007 FILLER_26_326
*1008 FILLER_26_333
*1009 FILLER_26_340
*1010 FILLER_26_347
*1011 FILLER_26_351
*1012 FILLER_26_39
*1013 FILLER_26_4
*1014 FILLER_26_46
*1015 FILLER_26_53
*1016 FILLER_26_60
*1017 FILLER_26_67
*1018 FILLER_26_74
*1019 FILLER_26_81
*1020 FILLER_26_88
*1021 FILLER_26_95
*1022 FILLER_27_102
*1023 FILLER_27_109
*1024 FILLER_27_11
*1025 FILLER_27_116
*1026 FILLER_27_123
*1027 FILLER_27_130
*1028 FILLER_27_137
*1029 FILLER_27_144
*1030 FILLER_27_151
*1031 FILLER_27_158
*1032 FILLER_27_165
*1033 FILLER_27_172
*1034 FILLER_27_179
*1035 FILLER_27_18
*1036 FILLER_27_186
*1037 FILLER_27_193
*1038 FILLER_27_200
*1039 FILLER_27_207
*1040 FILLER_27_214
*1041 FILLER_27_221
*1042 FILLER_27_228
*1043 FILLER_27_235
*1044 FILLER_27_242
*1045 FILLER_27_249
*1046 FILLER_27_25
*1047 FILLER_27_256
*1048 FILLER_27_263
*1049 FILLER_27_270
*1050 FILLER_27_277
*1051 FILLER_27_284
*1052 FILLER_27_291
*1053 FILLER_27_298
*1054 FILLER_27_305
*1055 FILLER_27_312
*1056 FILLER_27_319
*1057 FILLER_27_32
*1058 FILLER_27_326
*1059 FILLER_27_333
*1060 FILLER_27_340
*1061 FILLER_27_347
*1062 FILLER_27_351
*1063 FILLER_27_39
*1064 FILLER_27_4
*1065 FILLER_27_46
*1066 FILLER_27_53
*1067 FILLER_27_60
*1068 FILLER_27_67
*1069 FILLER_27_74
*1070 FILLER_27_81
*1071 FILLER_27_88
*1072 FILLER_27_95
*1073 FILLER_28_0
*1074 FILLER_28_105
*1075 FILLER_28_112
*1076 FILLER_28_119
*1077 FILLER_28_126
*1078 FILLER_28_133
*1079 FILLER_28_14
*1080 FILLER_28_140
*1081 FILLER_28_147
*1082 FILLER_28_154
*1083 FILLER_28_161
*1084 FILLER_28_168
*1085 FILLER_28_175
*1086 FILLER_28_182
*1087 FILLER_28_189
*1088 FILLER_28_196
*1089 FILLER_28_203
*1090 FILLER_28_21
*1091 FILLER_28_210
*1092 FILLER_28_217
*1093 FILLER_28_224
*1094 FILLER_28_231
*1095 FILLER_28_238
*1096 FILLER_28_245
*1097 FILLER_28_252
*1098 FILLER_28_259
*1099 FILLER_28_266
*1100 FILLER_28_273
*1101 FILLER_28_28
*1102 FILLER_28_280
*1103 FILLER_28_287
*1104 FILLER_28_294
*1105 FILLER_28_301
*1106 FILLER_28_308
*1107 FILLER_28_315
*1108 FILLER_28_322
*1109 FILLER_28_329
*1110 FILLER_28_336
*1111 FILLER_28_343
*1112 FILLER_28_35
*1113 FILLER_28_350
*1114 FILLER_28_352
*1115 FILLER_28_42
*1116 FILLER_28_49
*1117 FILLER_28_56
*1118 FILLER_28_63
*1119 FILLER_28_7
*1120 FILLER_28_70
*1121 FILLER_28_77
*1122 FILLER_28_84
*1123 FILLER_28_91
*1124 FILLER_28_98
*1125 FILLER_29_102
*1126 FILLER_29_109
*1127 FILLER_29_11
*1128 FILLER_29_116
*1129 FILLER_29_123
*1130 FILLER_29_130
*1131 FILLER_29_137
*1132 FILLER_29_144
*1133 FILLER_29_151
*1134 FILLER_29_158
*1135 FILLER_29_165
*1136 FILLER_29_172
*1137 FILLER_29_179
*1138 FILLER_29_18
*1139 FILLER_29_186
*1140 FILLER_29_193
*1141 FILLER_29_200
*1142 FILLER_29_207
*1143 FILLER_29_214
*1144 FILLER_29_221
*1145 FILLER_29_228
*1146 FILLER_29_235
*1147 FILLER_29_242
*1148 FILLER_29_249
*1149 FILLER_29_25
*1150 FILLER_29_256
*1151 FILLER_29_263
*1152 FILLER_29_270
*1153 FILLER_29_277
*1154 FILLER_29_284
*1155 FILLER_29_291
*1156 FILLER_29_298
*1157 FILLER_29_305
*1158 FILLER_29_312
*1159 FILLER_29_319
*1160 FILLER_29_32
*1161 FILLER_29_326
*1162 FILLER_29_333
*1163 FILLER_29_340
*1164 FILLER_29_347
*1165 FILLER_29_351
*1166 FILLER_29_39
*1167 FILLER_29_4
*1168 FILLER_29_46
*1169 FILLER_29_53
*1170 FILLER_29_60
*1171 FILLER_29_67
*1172 FILLER_29_74
*1173 FILLER_29_81
*1174 FILLER_29_88
*1175 FILLER_29_95
*1176 FILLER_2_0
*1177 FILLER_2_105
*1178 FILLER_2_112
*1179 FILLER_2_119
*1180 FILLER_2_126
*1181 FILLER_2_133
*1182 FILLER_2_14
*1183 FILLER_2_140
*1184 FILLER_2_147
*1185 FILLER_2_154
*1186 FILLER_2_161
*1187 FILLER_2_168
*1188 FILLER_2_175
*1189 FILLER_2_182
*1190 FILLER_2_189
*1191 FILLER_2_196
*1192 FILLER_2_203
*1193 FILLER_2_21
*1194 FILLER_2_210
*1195 FILLER_2_217
*1196 FILLER_2_224
*1197 FILLER_2_231
*1198 FILLER_2_238
*1199 FILLER_2_245
*1200 FILLER_2_252
*1201 FILLER_2_259
*1202 FILLER_2_266
*1203 FILLER_2_273
*1204 FILLER_2_28
*1205 FILLER_2_280
*1206 FILLER_2_287
*1207 FILLER_2_294
*1208 FILLER_2_301
*1209 FILLER_2_308
*1210 FILLER_2_315
*1211 FILLER_2_322
*1212 FILLER_2_329
*1213 FILLER_2_336
*1214 FILLER_2_343
*1215 FILLER_2_35
*1216 FILLER_2_350
*1217 FILLER_2_352
*1218 FILLER_2_42
*1219 FILLER_2_49
*1220 FILLER_2_56
*1221 FILLER_2_63
*1222 FILLER_2_7
*1223 FILLER_2_70
*1224 FILLER_2_77
*1225 FILLER_2_84
*1226 FILLER_2_91
*1227 FILLER_2_98
*1228 FILLER_30_102
*1229 FILLER_30_109
*1230 FILLER_30_11
*1231 FILLER_30_116
*1232 FILLER_30_123
*1233 FILLER_30_130
*1234 FILLER_30_137
*1235 FILLER_30_144
*1236 FILLER_30_151
*1237 FILLER_30_158
*1238 FILLER_30_165
*1239 FILLER_30_172
*1240 FILLER_30_179
*1241 FILLER_30_18
*1242 FILLER_30_186
*1243 FILLER_30_193
*1244 FILLER_30_200
*1245 FILLER_30_207
*1246 FILLER_30_214
*1247 FILLER_30_221
*1248 FILLER_30_228
*1249 FILLER_30_235
*1250 FILLER_30_242
*1251 FILLER_30_249
*1252 FILLER_30_25
*1253 FILLER_30_256
*1254 FILLER_30_263
*1255 FILLER_30_270
*1256 FILLER_30_277
*1257 FILLER_30_284
*1258 FILLER_30_291
*1259 FILLER_30_298
*1260 FILLER_30_305
*1261 FILLER_30_312
*1262 FILLER_30_319
*1263 FILLER_30_32
*1264 FILLER_30_321
*1265 FILLER_30_325
*1266 FILLER_30_332
*1267 FILLER_30_339
*1268 FILLER_30_346
*1269 FILLER_30_39
*1270 FILLER_30_4
*1271 FILLER_30_46
*1272 FILLER_30_53
*1273 FILLER_30_60
*1274 FILLER_30_67
*1275 FILLER_30_74
*1276 FILLER_30_81
*1277 FILLER_30_88
*1278 FILLER_30_95
*1279 FILLER_31_0
*1280 FILLER_31_105
*1281 FILLER_31_112
*1282 FILLER_31_119
*1283 FILLER_31_126
*1284 FILLER_31_133
*1285 FILLER_31_14
*1286 FILLER_31_140
*1287 FILLER_31_147
*1288 FILLER_31_154
*1289 FILLER_31_161
*1290 FILLER_31_168
*1291 FILLER_31_175
*1292 FILLER_31_182
*1293 FILLER_31_189
*1294 FILLER_31_196
*1295 FILLER_31_203
*1296 FILLER_31_21
*1297 FILLER_31_210
*1298 FILLER_31_217
*1299 FILLER_31_224
*1300 FILLER_31_231
*1301 FILLER_31_238
*1302 FILLER_31_245
*1303 FILLER_31_252
*1304 FILLER_31_259
*1305 FILLER_31_266
*1306 FILLER_31_273
*1307 FILLER_31_28
*1308 FILLER_31_280
*1309 FILLER_31_287
*1310 FILLER_31_294
*1311 FILLER_31_301
*1312 FILLER_31_308
*1313 FILLER_31_315
*1314 FILLER_31_322
*1315 FILLER_31_329
*1316 FILLER_31_336
*1317 FILLER_31_343
*1318 FILLER_31_35
*1319 FILLER_31_350
*1320 FILLER_31_352
*1321 FILLER_31_42
*1322 FILLER_31_49
*1323 FILLER_31_56
*1324 FILLER_31_63
*1325 FILLER_31_7
*1326 FILLER_31_70
*1327 FILLER_31_77
*1328 FILLER_31_84
*1329 FILLER_31_91
*1330 FILLER_31_98
*1331 FILLER_32_0
*1332 FILLER_32_105
*1333 FILLER_32_112
*1334 FILLER_32_119
*1335 FILLER_32_126
*1336 FILLER_32_133
*1337 FILLER_32_14
*1338 FILLER_32_140
*1339 FILLER_32_147
*1340 FILLER_32_154
*1341 FILLER_32_161
*1342 FILLER_32_168
*1343 FILLER_32_175
*1344 FILLER_32_182
*1345 FILLER_32_189
*1346 FILLER_32_196
*1347 FILLER_32_203
*1348 FILLER_32_21
*1349 FILLER_32_210
*1350 FILLER_32_217
*1351 FILLER_32_224
*1352 FILLER_32_231
*1353 FILLER_32_238
*1354 FILLER_32_245
*1355 FILLER_32_252
*1356 FILLER_32_259
*1357 FILLER_32_266
*1358 FILLER_32_273
*1359 FILLER_32_28
*1360 FILLER_32_280
*1361 FILLER_32_287
*1362 FILLER_32_294
*1363 FILLER_32_301
*1364 FILLER_32_308
*1365 FILLER_32_315
*1366 FILLER_32_322
*1367 FILLER_32_329
*1368 FILLER_32_336
*1369 FILLER_32_343
*1370 FILLER_32_35
*1371 FILLER_32_350
*1372 FILLER_32_352
*1373 FILLER_32_42
*1374 FILLER_32_49
*1375 FILLER_32_56
*1376 FILLER_32_63
*1377 FILLER_32_7
*1378 FILLER_32_70
*1379 FILLER_32_77
*1380 FILLER_32_84
*1381 FILLER_32_91
*1382 FILLER_32_98
*1383 FILLER_33_0
*1384 FILLER_33_105
*1385 FILLER_33_112
*1386 FILLER_33_119
*1387 FILLER_33_126
*1388 FILLER_33_133
*1389 FILLER_33_14
*1390 FILLER_33_140
*1391 FILLER_33_147
*1392 FILLER_33_154
*1393 FILLER_33_161
*1394 FILLER_33_168
*1395 FILLER_33_175
*1396 FILLER_33_182
*1397 FILLER_33_189
*1398 FILLER_33_196
*1399 FILLER_33_203
*1400 FILLER_33_21
*1401 FILLER_33_210
*1402 FILLER_33_217
*1403 FILLER_33_224
*1404 FILLER_33_231
*1405 FILLER_33_238
*1406 FILLER_33_245
*1407 FILLER_33_252
*1408 FILLER_33_259
*1409 FILLER_33_266
*1410 FILLER_33_273
*1411 FILLER_33_28
*1412 FILLER_33_280
*1413 FILLER_33_287
*1414 FILLER_33_294
*1415 FILLER_33_301
*1416 FILLER_33_308
*1417 FILLER_33_315
*1418 FILLER_33_322
*1419 FILLER_33_329
*1420 FILLER_33_336
*1421 FILLER_33_343
*1422 FILLER_33_35
*1423 FILLER_33_350
*1424 FILLER_33_352
*1425 FILLER_33_42
*1426 FILLER_33_49
*1427 FILLER_33_56
*1428 FILLER_33_63
*1429 FILLER_33_7
*1430 FILLER_33_70
*1431 FILLER_33_77
*1432 FILLER_33_84
*1433 FILLER_33_91
*1434 FILLER_33_98
*1435 FILLER_34_0
*1436 FILLER_34_105
*1437 FILLER_34_112
*1438 FILLER_34_119
*1439 FILLER_34_126
*1440 FILLER_34_133
*1441 FILLER_34_14
*1442 FILLER_34_140
*1443 FILLER_34_147
*1444 FILLER_34_154
*1445 FILLER_34_161
*1446 FILLER_34_168
*1447 FILLER_34_175
*1448 FILLER_34_182
*1449 FILLER_34_189
*1450 FILLER_34_196
*1451 FILLER_34_203
*1452 FILLER_34_21
*1453 FILLER_34_210
*1454 FILLER_34_217
*1455 FILLER_34_224
*1456 FILLER_34_231
*1457 FILLER_34_238
*1458 FILLER_34_245
*1459 FILLER_34_252
*1460 FILLER_34_259
*1461 FILLER_34_266
*1462 FILLER_34_273
*1463 FILLER_34_28
*1464 FILLER_34_280
*1465 FILLER_34_287
*1466 FILLER_34_294
*1467 FILLER_34_301
*1468 FILLER_34_308
*1469 FILLER_34_315
*1470 FILLER_34_322
*1471 FILLER_34_329
*1472 FILLER_34_336
*1473 FILLER_34_343
*1474 FILLER_34_35
*1475 FILLER_34_350
*1476 FILLER_34_352
*1477 FILLER_34_42
*1478 FILLER_34_49
*1479 FILLER_34_56
*1480 FILLER_34_63
*1481 FILLER_34_7
*1482 FILLER_34_70
*1483 FILLER_34_77
*1484 FILLER_34_84
*1485 FILLER_34_91
*1486 FILLER_34_98
*1487 FILLER_35_0
*1488 FILLER_35_105
*1489 FILLER_35_112
*1490 FILLER_35_119
*1491 FILLER_35_126
*1492 FILLER_35_133
*1493 FILLER_35_14
*1494 FILLER_35_140
*1495 FILLER_35_147
*1496 FILLER_35_154
*1497 FILLER_35_161
*1498 FILLER_35_168
*1499 FILLER_35_175
*1500 FILLER_35_182
*1501 FILLER_35_189
*1502 FILLER_35_196
*1503 FILLER_35_203
*1504 FILLER_35_21
*1505 FILLER_35_210
*1506 FILLER_35_217
*1507 FILLER_35_224
*1508 FILLER_35_231
*1509 FILLER_35_238
*1510 FILLER_35_245
*1511 FILLER_35_252
*1512 FILLER_35_259
*1513 FILLER_35_266
*1514 FILLER_35_273
*1515 FILLER_35_28
*1516 FILLER_35_280
*1517 FILLER_35_287
*1518 FILLER_35_294
*1519 FILLER_35_301
*1520 FILLER_35_308
*1521 FILLER_35_315
*1522 FILLER_35_322
*1523 FILLER_35_329
*1524 FILLER_35_336
*1525 FILLER_35_343
*1526 FILLER_35_35
*1527 FILLER_35_350
*1528 FILLER_35_352
*1529 FILLER_35_42
*1530 FILLER_35_49
*1531 FILLER_35_56
*1532 FILLER_35_63
*1533 FILLER_35_7
*1534 FILLER_35_70
*1535 FILLER_35_77
*1536 FILLER_35_84
*1537 FILLER_35_91
*1538 FILLER_35_98
*1539 FILLER_36_0
*1540 FILLER_36_105
*1541 FILLER_36_112
*1542 FILLER_36_119
*1543 FILLER_36_126
*1544 FILLER_36_133
*1545 FILLER_36_14
*1546 FILLER_36_140
*1547 FILLER_36_147
*1548 FILLER_36_154
*1549 FILLER_36_161
*1550 FILLER_36_168
*1551 FILLER_36_175
*1552 FILLER_36_182
*1553 FILLER_36_189
*1554 FILLER_36_196
*1555 FILLER_36_203
*1556 FILLER_36_21
*1557 FILLER_36_210
*1558 FILLER_36_217
*1559 FILLER_36_224
*1560 FILLER_36_231
*1561 FILLER_36_238
*1562 FILLER_36_245
*1563 FILLER_36_252
*1564 FILLER_36_259
*1565 FILLER_36_266
*1566 FILLER_36_273
*1567 FILLER_36_28
*1568 FILLER_36_280
*1569 FILLER_36_287
*1570 FILLER_36_294
*1571 FILLER_36_301
*1572 FILLER_36_308
*1573 FILLER_36_315
*1574 FILLER_36_322
*1575 FILLER_36_329
*1576 FILLER_36_336
*1577 FILLER_36_343
*1578 FILLER_36_35
*1579 FILLER_36_350
*1580 FILLER_36_352
*1581 FILLER_36_42
*1582 FILLER_36_49
*1583 FILLER_36_56
*1584 FILLER_36_63
*1585 FILLER_36_7
*1586 FILLER_36_70